
Spectre (R) Circuit Simulator
Version 16.1.0.673.isr14 64bit -- 30 Mar 2018
Copyright (C) 1989-2018 Cadence Design Systems, Inc. All rights reserved worldwide. Cadence and Spectre are registered trademarks of Cadence Design Systems, Inc. All others are the property of their respective holders.

Includes RSA BSAFE(R) Cryptographic or Security Protocol Software from RSA Security, Inc.

User: brunozimmer   Host: itacolomi.lapsi   HostID: 7F0100   PID: 29095
Memory  available: 1.3567 GB  physical: 33.7038 GB
Linux   : CentOS Linux release 7.6.1810 (Core) 
CPU Type: Intel(R) Xeon(R) CPU E3-1220 V2 @ 3.10GHz
All processors running at 3300.0 MHz
        Socket: Processors
        0:       0,  1,  2,  3
        
System load averages (1min, 5min, 15min) : 114.0 %, 109.2 %, 108.0 %


Simulating `Cell.scs' on itacolomi.lapsi at 12:09:37 PM, Fri May 1, 2020 (process id: 29095).
Current working directory: /home/brunozimmer/Documentos/Netlist_OneCellMem/W_Capacitance/Test_Write/Q_low/Up_to_Down
Command line:
    /tools/cadence/SPECTRE161/tools.lnx86/bin/spectre -64 =mdl  \
        TpWrite.mdl Cell.scs

Loading /tools/cadence/SPECTRE161/tools.lnx86/cmi/lib/64bit/5.0/libinfineon_sh.so ...
Loading /tools/cadence/SPECTRE161/tools.lnx86/cmi/lib/64bit/5.0/libphilips_o_sh.so ...
Loading /tools/cadence/SPECTRE161/tools.lnx86/cmi/lib/64bit/5.0/libphilips_sh.so ...
Loading /tools/cadence/SPECTRE161/tools.lnx86/cmi/lib/64bit/5.0/libsparam_sh.so ...
Loading /tools/cadence/SPECTRE161/tools.lnx86/cmi/lib/64bit/5.0/libstmodels_sh.so ...
Loading /tools/cadence/SPECTRE161/tools.lnx86/spectre/lib/64bit/mdl/libSpectreEH_sh.so ...

Warning from spectre.
    WARNING (MDL-1452): line 1, column 1: syntax error before or at: *
            unrecognised statement.

Reading file:  /home/brunozimmer/Documentos/Netlist_OneCellMem/W_Capacitance/Test_Write/Q_low/Up_to_Down/Cell.scs
Reading file:  /tools/cadence/SPECTRE161/tools.lnx86/spectre/etc/configs/mapsubckt.cfg
Reading file:  /tools/cadence/SPECTRE161/tools.lnx86/spectre/etc/configs/spectre.cfg
Reading file:  /home/brunozimmer/Documentos/Netlist_OneCellMem/W_Capacitance/Test_Write/Q_low/Up_to_Down/TRISTATE.spi
Reading file:  /home/brunozimmer/Documentos/Netlist_OneCellMem/W_Capacitance/Test_Write/Q_low/Up_to_Down/45nm_LP.pm
Reading file:  /home/brunozimmer/Documentos/Netlist_OneCellMem/W_Capacitance/Test_Write/Q_low/Up_to_Down/INV.spi
Reading file:  /home/brunozimmer/Documentos/Netlist_OneCellMem/W_Capacitance/Test_Write/Q_low/Up_to_Down/PassTransistor.spi
Time for NDB Parsing: CPU = 189.283 ms, elapsed = 633.391 ms.
Time accumulated: CPU = 205.837 ms, elapsed = 633.397 ms.
Peak resident memory used = 52.9 Mbytes.


Warning from spectre during circuit read-in.
    WARNING (SFE-397): A primitive with name NMOS_VTL already exist, will override.
    WARNING (SFE-397): A primitive with name PMOS_VTL already exist, will override.
    WARNING (SFE-397): A primitive with name NMOS_VTL already exist, will override.
    WARNING (SFE-397): A primitive with name PMOS_VTL already exist, will override.
    WARNING (SFE-397): A primitive with name NMOS_VTL already exist, will override.
        Further occurrences of this warning will be suppressed.

Reading link:  /tools/cadence/SPECTRE161/tools.lnx86/spectre/etc/ahdl/discipline.h
Reading file:  /tools/cadence/SPECTRE161/tools.lnx86/spectre/etc/ahdl/disciplines.vams
Reading link:  /tools/cadence/SPECTRE161/tools.lnx86/spectre/etc/ahdl/constants.h
Reading file:  /tools/cadence/SPECTRE161/tools.lnx86/spectre/etc/ahdl/constants.vams
Time for Elaboration: CPU = 17.418 ms, elapsed = 45.47 ms.
Time accumulated: CPU = 223.48 ms, elapsed = 683.267 ms.
Peak resident memory used = 59.8 Mbytes.


Time for EDB Visiting: CPU = 876 us, elapsed = 880.003 us.
Time accumulated: CPU = 224.491 ms, elapsed = 684.3 ms.
Peak resident memory used = 60.4 Mbytes.


Notice from spectre during topology check.
    Only one connection to node `Gnd5'.


Global user options:
             rawfmt = psfbin

Scoped user options:

Circuit inventory:
              nodes 21
              bsim4 17    
          capacitor 2     
            vsource 14    

Analysis and control statement inventory:
               tran 1     

Output statements:
             .probe 0     
           .measure 0     
               save 0     


Notice from spectre.
    1 warning suppressed.

Time for parsing: CPU = 2.341 ms, elapsed = 54.975 ms.
Time accumulated: CPU = 226.948 ms, elapsed = 739.409 ms.
Peak resident memory used = 61.8 Mbytes.

~~~~~~~~~~~~~~~~~~~~~~
Pre-Simulation Summary
~~~~~~~~~~~~~~~~~~~~~~
~~~~~~~~~~~~~~~~~~~~~~

+++++++++++++
TpEn = (0.6n)
+++++++++++++

Warning from spectre.
    WARNING (CMI-2178): Vgnd: Terminals must not be connected together (to node `0').


************************************************************
Transient Analysis `TmpEn-000_TmpEn': time = (0 s -> 2.5 ns)
************************************************************

Notice from spectre during IC analysis, during transient analysis `TmpEn-000_TmpEn', during task `MDLControl'.
    There are 4 IC nodes defined.

DC simulation time: CPU = 1.279 ms, elapsed = 1.28007 ms.

Notice from spectre during transient analysis `TmpEn-000_TmpEn', during task `MDLControl'.
    No outputs were found. Loosening output filter criterion to `allpub'.


Opening the PSF file Cell.raw/TmpEn-000_TmpEn.tran.tran ...
Important parameter values:
    start = 0 s
    outputstart = 0 s
    stop = 2.5 ns
    step = 2.5 ps
    maxstep = 50 ps
    ic = all
    useprevic = no
    skipdc = no
    reltol = 1e-03
    abstol(V) = 1 uV
    abstol(I) = 1 pA
    temp = 27 C
    tnom = 27 C
    tempeffects = all
    errpreset = moderate
    method = traponly
    lteratio = 3.5
    relref = sigglobal
    cmin = 0 F
    gmin = 1 pS


Output and IC/nodeset summary:
                 save   13      (current)
                 save   21      (voltage)
                 ic     4       

...............9..

Notice from spectre at time = 327.5 ps during transient analysis `TmpEn-000_TmpEn', during task `MDLControl'.
    Found trapezoidal ringing on node Vdd:p.

...............9.....

Notice from spectre at time = 377.5 ps during transient analysis `TmpEn-000_TmpEn', during task `MDLControl'.
    Found trapezoidal ringing on node Vdd:p.

...............9........

Notice from spectre at time = 427.5 ps during transient analysis `TmpEn-000_TmpEn', during task `MDLControl'.
    Found trapezoidal ringing on node Vdd:p.

...............9...........

Notice from spectre at time = 477.5 ps during transient analysis `TmpEn-000_TmpEn', during task `MDLControl'.
    Found trapezoidal ringing on node Vdd:p.

...............9...............

Notice from spectre at time = 527.5 ps during transient analysis `TmpEn-000_TmpEn', during task `MDLControl'.
    Found trapezoidal ringing on node Vdd:p.
        Further occurrences of this notice will be suppressed.

...............9...............8...............7...............6...............5...............4...............3...............2...............1...............0
Number of accepted tran steps =             145

Notice from spectre during transient analysis `TmpEn-000_TmpEn', during task `MDLControl'.
    Trapezoidal ringing is detected during tran analysis.
        Please use method=trap for better results and performance.


Maximum value achieved for any signal of each quantity: 
V: V(X2.2) = 1.196 V
I: I(Venb:p) = 1.915 mA
If your circuit contains signals of the same quantity that are vastly different in size (such as high voltage circuitry combined with low voltage control circuitry), you should consider specifying global option `bin_relref=yes'.

~~~~~~~~~~~~~~~~~~~~~~~~~~~~~~~~~
Post-Transient Simulation Summary
~~~~~~~~~~~~~~~~~~~~~~~~~~~~~~~~~
   -   To further speed up simulation, consider
          add ++aps on command line
~~~~~~~~~~~~~~~~~~~~~~~~~~~~~~~~~


During simulation, the CPU load for active processors is :
        Spectre  0 (100.0 %)     1 (100.0 %)     2 (100.0 %)     3 (100.0 %)
        Other   
Initial condition solution time: CPU = 1.336 ms, elapsed = 1.33801 ms.
Intrinsic tran analysis time:    CPU = 33.391 ms, elapsed = 81.7511 ms.
Total time required for tran analysis `TmpEn-000_TmpEn': CPU = 36.305 ms, elapsed = 84.6651 ms.
Time accumulated: CPU = 270.72 ms, elapsed = 878.877 ms.
Peak resident memory used = 64.6 Mbytes.


Notice from spectre during task `MDLControl'.
    32 notices suppressed.


Value of Exported Variables in this iteration of the Search loop ( iteration = 1 ) :
Ten_Q1=0.000160705
Ten_QB1=0.999803
Tp_En=6e-10
Tp_contam=9e-10

++++++++++++++++++
TpEn = (TpWl-(2p))
++++++++++++++++++

Warning from spectre.
    WARNING (CMI-2178): Vgnd: Terminals must not be connected together (to node `0').


************************************************************
Transient Analysis `TmpEn-000_TmpEn': time = (0 s -> 2.5 ns)
************************************************************

Notice from spectre during IC analysis, during transient analysis `TmpEn-000_TmpEn', during task `MDLControl'.
    There are 4 IC nodes defined.

DC simulation time: CPU = 900 us, elapsed = 909.09 us.

Notice from spectre during transient analysis `TmpEn-000_TmpEn', during task `MDLControl'.
    No outputs were found. Loosening output filter criterion to `allpub'.


Opening the PSF file Cell.raw/TmpEn-000_TmpEn.tran.tran ...
Important parameter values:
    start = 0 s
    outputstart = 0 s
    stop = 2.5 ns
    step = 2.5 ps
    maxstep = 50 ps
    ic = all
    useprevic = no
    skipdc = no
    reltol = 1e-03
    abstol(V) = 1 uV
    abstol(I) = 1 pA
    temp = 27 C
    tnom = 27 C
    tempeffects = all
    errpreset = moderate
    method = traponly
    lteratio = 3.5
    relref = sigglobal
    cmin = 0 F
    gmin = 1 pS


Output and IC/nodeset summary:
                 save   13      (current)
                 save   21      (voltage)
                 ic     4       

...............9..

Notice from spectre at time = 327.5 ps during transient analysis `TmpEn-000_TmpEn', during task `MDLControl'.
    Found trapezoidal ringing on node Vdd:p.

...............9.....

Notice from spectre at time = 377.5 ps during transient analysis `TmpEn-000_TmpEn', during task `MDLControl'.
    Found trapezoidal ringing on node Vdd:p.

...............9........

Notice from spectre at time = 427.5 ps during transient analysis `TmpEn-000_TmpEn', during task `MDLControl'.
    Found trapezoidal ringing on node Vdd:p.

...............9...........

Notice from spectre at time = 477.5 ps during transient analysis `TmpEn-000_TmpEn', during task `MDLControl'.
    Found trapezoidal ringing on node Vdd:p.

...............9...............

Notice from spectre at time = 527.5 ps during transient analysis `TmpEn-000_TmpEn', during task `MDLControl'.
    Found trapezoidal ringing on node Vdd:p.
        Further occurrences of this notice will be suppressed.

...............9...............8...............7...............6...............5...............4...............3...............2...............1...............0
Number of accepted tran steps =             135

Notice from spectre during transient analysis `TmpEn-000_TmpEn', during task `MDLControl'.
    Trapezoidal ringing is detected during tran analysis.
        Please use method=trap for better results and performance.


Maximum value achieved for any signal of each quantity: 
V: V(X3.2) = 1.111 V
I: I(Venb:p) = 2.001 mA
If your circuit contains signals of the same quantity that are vastly different in size (such as high voltage circuitry combined with low voltage control circuitry), you should consider specifying global option `bin_relref=yes'.

~~~~~~~~~~~~~~~~~~~~~~~~~~~~~~~~~
Post-Transient Simulation Summary
~~~~~~~~~~~~~~~~~~~~~~~~~~~~~~~~~
   -   To further speed up simulation, consider
          add ++aps on command line
~~~~~~~~~~~~~~~~~~~~~~~~~~~~~~~~~


During simulation, the CPU load for active processors is :
        Spectre  0 (100.0 %)     1 (100.0 %)     2 (100.0 %)     3 (100.0 %)
        Other   
Initial condition solution time: CPU = 944 us, elapsed = 965.834 us.
Intrinsic tran analysis time:    CPU = 29.788 ms, elapsed = 83.8411 ms.
Total time required for tran analysis `TmpEn-000_TmpEn': CPU = 31.799 ms, elapsed = 86.0169 ms.
Time accumulated: CPU = 308.496 ms, elapsed = 970.956 ms.
Peak resident memory used = 64.7 Mbytes.


Notice from spectre during task `MDLControl'.
    43 notices suppressed.


Value of Exported Variables in this iteration of the Search loop ( iteration = 2 ) :
Ten_Q1=0.970406
Ten_QB1=0.0173871
Tp_En=1.498e-09
Tp_contam=2e-12

++++++++++++++++
TpEn = 1.049e-09
++++++++++++++++

Warning from spectre.
    WARNING (CMI-2178): Vgnd: Terminals must not be connected together (to node `0').


************************************************************
Transient Analysis `TmpEn-000_TmpEn': time = (0 s -> 2.5 ns)
************************************************************

Notice from spectre during IC analysis, during transient analysis `TmpEn-000_TmpEn', during task `MDLControl'.
    There are 4 IC nodes defined.

DC simulation time: CPU = 894 us, elapsed = 906.944 us.

Notice from spectre during transient analysis `TmpEn-000_TmpEn', during task `MDLControl'.
    No outputs were found. Loosening output filter criterion to `allpub'.


Opening the PSF file Cell.raw/TmpEn-000_TmpEn.tran.tran ...
Important parameter values:
    start = 0 s
    outputstart = 0 s
    stop = 2.5 ns
    step = 2.5 ps
    maxstep = 50 ps
    ic = all
    useprevic = no
    skipdc = no
    reltol = 1e-03
    abstol(V) = 1 uV
    abstol(I) = 1 pA
    temp = 27 C
    tnom = 27 C
    tempeffects = all
    errpreset = moderate
    method = traponly
    lteratio = 3.5
    relref = sigglobal
    cmin = 0 F
    gmin = 1 pS


Output and IC/nodeset summary:
                 save   13      (current)
                 save   21      (voltage)
                 ic     4       

...............9..

Notice from spectre at time = 327.5 ps during transient analysis `TmpEn-000_TmpEn', during task `MDLControl'.
    Found trapezoidal ringing on node Vdd:p.

...............9.....

Notice from spectre at time = 377.5 ps during transient analysis `TmpEn-000_TmpEn', during task `MDLControl'.
    Found trapezoidal ringing on node Vdd:p.

...............9........

Notice from spectre at time = 427.5 ps during transient analysis `TmpEn-000_TmpEn', during task `MDLControl'.
    Found trapezoidal ringing on node Vdd:p.

...............9...........

Notice from spectre at time = 477.5 ps during transient analysis `TmpEn-000_TmpEn', during task `MDLControl'.
    Found trapezoidal ringing on node Vdd:p.

...............9...............

Notice from spectre at time = 527.5 ps during transient analysis `TmpEn-000_TmpEn', during task `MDLControl'.
    Found trapezoidal ringing on node Vdd:p.
        Further occurrences of this notice will be suppressed.

...............9...............8...............7...............6...............5...............4...............3...............2...............1...............0
Number of accepted tran steps =             146

Notice from spectre during transient analysis `TmpEn-000_TmpEn', during task `MDLControl'.
    Trapezoidal ringing is detected during tran analysis.
        Please use method=trap for better results and performance.


Maximum value achieved for any signal of each quantity: 
V: V(X2.2) = 1.186 V
I: I(Venb:p) = 1.915 mA
If your circuit contains signals of the same quantity that are vastly different in size (such as high voltage circuitry combined with low voltage control circuitry), you should consider specifying global option `bin_relref=yes'.

~~~~~~~~~~~~~~~~~~~~~~~~~~~~~~~~~
Post-Transient Simulation Summary
~~~~~~~~~~~~~~~~~~~~~~~~~~~~~~~~~
   -   To further speed up simulation, consider
          add ++aps on command line
~~~~~~~~~~~~~~~~~~~~~~~~~~~~~~~~~


During simulation, the CPU load for active processors is :
        Spectre  0 (100.0 %)     1 (100.0 %)     2 (100.0 %)     3 (100.0 %)
        Other   
Initial condition solution time: CPU = 939 us, elapsed = 963.926 us.
Intrinsic tran analysis time:    CPU = 32.868 ms, elapsed = 95.505 ms.
Total time required for tran analysis `TmpEn-000_TmpEn': CPU = 34.885 ms, elapsed = 97.7089 ms.
Time accumulated: CPU = 349.309 ms, elapsed = 1.07531 s.
Peak resident memory used = 64.7 Mbytes.


Notice from spectre during task `MDLControl'.
    35 notices suppressed.


Value of Exported Variables in this iteration of the Search loop ( iteration = 3 ) :
Ten_Q1=0.00174214
Ten_QB1=0.979566
Tp_En=1.049e-09
Tp_contam=4.51e-10

+++++++++++++++++
TpEn = 1.2735e-09
+++++++++++++++++

Warning from spectre.
    WARNING (CMI-2178): Vgnd: Terminals must not be connected together (to node `0').


************************************************************
Transient Analysis `TmpEn-000_TmpEn': time = (0 s -> 2.5 ns)
************************************************************

Notice from spectre during IC analysis, during transient analysis `TmpEn-000_TmpEn', during task `MDLControl'.
    There are 4 IC nodes defined.

DC simulation time: CPU = 897 us, elapsed = 910.044 us.

Notice from spectre during transient analysis `TmpEn-000_TmpEn', during task `MDLControl'.
    No outputs were found. Loosening output filter criterion to `allpub'.


Opening the PSF file Cell.raw/TmpEn-000_TmpEn.tran.tran ...
Important parameter values:
    start = 0 s
    outputstart = 0 s
    stop = 2.5 ns
    step = 2.5 ps
    maxstep = 50 ps
    ic = all
    useprevic = no
    skipdc = no
    reltol = 1e-03
    abstol(V) = 1 uV
    abstol(I) = 1 pA
    temp = 27 C
    tnom = 27 C
    tempeffects = all
    errpreset = moderate
    method = traponly
    lteratio = 3.5
    relref = sigglobal
    cmin = 0 F
    gmin = 1 pS


Output and IC/nodeset summary:
                 save   13      (current)
                 save   21      (voltage)
                 ic     4       

...............9..

Notice from spectre at time = 327.5 ps during transient analysis `TmpEn-000_TmpEn', during task `MDLControl'.
    Found trapezoidal ringing on node Vdd:p.

...............9.....

Notice from spectre at time = 377.5 ps during transient analysis `TmpEn-000_TmpEn', during task `MDLControl'.
    Found trapezoidal ringing on node Vdd:p.

...............9........

Notice from spectre at time = 427.5 ps during transient analysis `TmpEn-000_TmpEn', during task `MDLControl'.
    Found trapezoidal ringing on node Vdd:p.

...............9...........

Notice from spectre at time = 477.5 ps during transient analysis `TmpEn-000_TmpEn', during task `MDLControl'.
    Found trapezoidal ringing on node Vdd:p.

...............9...............

Notice from spectre at time = 527.5 ps during transient analysis `TmpEn-000_TmpEn', during task `MDLControl'.
    Found trapezoidal ringing on node Vdd:p.
        Further occurrences of this notice will be suppressed.

...............9...............8...............7...............6...............5...............4...............3...............2...............1...............0
Number of accepted tran steps =             145

Notice from spectre during transient analysis `TmpEn-000_TmpEn', during task `MDLControl'.
    Trapezoidal ringing is detected during tran analysis.
        Please use method=trap for better results and performance.


Maximum value achieved for any signal of each quantity: 
V: V(X2.2) = 1.091 V
I: I(Venb:p) = 1.915 mA
If your circuit contains signals of the same quantity that are vastly different in size (such as high voltage circuitry combined with low voltage control circuitry), you should consider specifying global option `bin_relref=yes'.

~~~~~~~~~~~~~~~~~~~~~~~~~~~~~~~~~
Post-Transient Simulation Summary
~~~~~~~~~~~~~~~~~~~~~~~~~~~~~~~~~
   -   To further speed up simulation, consider
          add ++aps on command line
~~~~~~~~~~~~~~~~~~~~~~~~~~~~~~~~~


During simulation, the CPU load for active processors is :
        Spectre  0 (100.0 %)     1 (100.0 %)     2 (100.0 %)     3 (100.0 %)
        Other   
Initial condition solution time: CPU = 977 us, elapsed = 4.65894 ms.
Intrinsic tran analysis time:    CPU = 32.432 ms, elapsed = 71.5501 ms.
Total time required for tran analysis `TmpEn-000_TmpEn': CPU = 34.715 ms, elapsed = 77.662 ms.
Time accumulated: CPU = 389.862 ms, elapsed = 1.15922 s.
Peak resident memory used = 64.7 Mbytes.


Notice from spectre during task `MDLControl'.
    38 notices suppressed.


Value of Exported Variables in this iteration of the Search loop ( iteration = 4 ) :
Ten_Q1=0.131317
Ten_QB1=0.702813
Tp_En=1.2735e-09
Tp_contam=2.265e-10

++++++++++++++++++
TpEn = 1.16125e-09
++++++++++++++++++

Warning from spectre.
    WARNING (CMI-2178): Vgnd: Terminals must not be connected together (to node `0').


************************************************************
Transient Analysis `TmpEn-000_TmpEn': time = (0 s -> 2.5 ns)
************************************************************

Notice from spectre during IC analysis, during transient analysis `TmpEn-000_TmpEn', during task `MDLControl'.
    There are 4 IC nodes defined.

DC simulation time: CPU = 908 us, elapsed = 1.21403 ms.

Notice from spectre during transient analysis `TmpEn-000_TmpEn', during task `MDLControl'.
    No outputs were found. Loosening output filter criterion to `allpub'.


Opening the PSF file Cell.raw/TmpEn-000_TmpEn.tran.tran ...
Important parameter values:
    start = 0 s
    outputstart = 0 s
    stop = 2.5 ns
    step = 2.5 ps
    maxstep = 50 ps
    ic = all
    useprevic = no
    skipdc = no
    reltol = 1e-03
    abstol(V) = 1 uV
    abstol(I) = 1 pA
    temp = 27 C
    tnom = 27 C
    tempeffects = all
    errpreset = moderate
    method = traponly
    lteratio = 3.5
    relref = sigglobal
    cmin = 0 F
    gmin = 1 pS


Output and IC/nodeset summary:
                 save   13      (current)
                 save   21      (voltage)
                 ic     4       

...............9..

Notice from spectre at time = 327.5 ps during transient analysis `TmpEn-000_TmpEn', during task `MDLControl'.
    Found trapezoidal ringing on node Vdd:p.

...............9.....

Notice from spectre at time = 377.5 ps during transient analysis `TmpEn-000_TmpEn', during task `MDLControl'.
    Found trapezoidal ringing on node Vdd:p.

...............9........

Notice from spectre at time = 427.5 ps during transient analysis `TmpEn-000_TmpEn', during task `MDLControl'.
    Found trapezoidal ringing on node Vdd:p.

...............9...........

Notice from spectre at time = 477.5 ps during transient analysis `TmpEn-000_TmpEn', during task `MDLControl'.
    Found trapezoidal ringing on node Vdd:p.

...............9...............

Notice from spectre at time = 527.5 ps during transient analysis `TmpEn-000_TmpEn', during task `MDLControl'.
    Found trapezoidal ringing on node Vdd:p.
        Further occurrences of this notice will be suppressed.

...............9...............8...............7...............6...............5...............4...............3...............2...............1...............0
Number of accepted tran steps =             149

Notice from spectre during transient analysis `TmpEn-000_TmpEn', during task `MDLControl'.
    Trapezoidal ringing is detected during tran analysis.
        Please use method=trap for better results and performance.


Maximum value achieved for any signal of each quantity: 
V: V(X2.2) = 1.153 V
I: I(Venb:p) = 1.915 mA
If your circuit contains signals of the same quantity that are vastly different in size (such as high voltage circuitry combined with low voltage control circuitry), you should consider specifying global option `bin_relref=yes'.

~~~~~~~~~~~~~~~~~~~~~~~~~~~~~~~~~
Post-Transient Simulation Summary
~~~~~~~~~~~~~~~~~~~~~~~~~~~~~~~~~
   -   To further speed up simulation, consider
          add ++aps on command line
~~~~~~~~~~~~~~~~~~~~~~~~~~~~~~~~~


During simulation, the CPU load for active processors is :
        Spectre  0 (100.0 %)     1 (100.0 %)     2 (100.0 %)     3 (100.0 %)
        Other   
Initial condition solution time: CPU = 955 us, elapsed = 1.2691 ms.
Intrinsic tran analysis time:    CPU = 33.247 ms, elapsed = 85.655 ms.
Total time required for tran analysis `TmpEn-000_TmpEn': CPU = 35.316 ms, elapsed = 88.2032 ms.
Time accumulated: CPU = 431.063 ms, elapsed = 1.27532 s.
Peak resident memory used = 64.7 Mbytes.


Notice from spectre during task `MDLControl'.
    40 notices suppressed.


Value of Exported Variables in this iteration of the Search loop ( iteration = 5 ) :
Ten_Q1=0.0151411
Ten_QB1=0.912193
Tp_En=1.16125e-09
Tp_contam=3.3875e-10

++++++++++++++++++
TpEn = 1.21738e-09
++++++++++++++++++

Warning from spectre.
    WARNING (CMI-2178): Vgnd: Terminals must not be connected together (to node `0').


************************************************************
Transient Analysis `TmpEn-000_TmpEn': time = (0 s -> 2.5 ns)
************************************************************

Notice from spectre during IC analysis, during transient analysis `TmpEn-000_TmpEn', during task `MDLControl'.
    There are 4 IC nodes defined.

DC simulation time: CPU = 903 us, elapsed = 913.143 us.

Notice from spectre during transient analysis `TmpEn-000_TmpEn', during task `MDLControl'.
    No outputs were found. Loosening output filter criterion to `allpub'.


Opening the PSF file Cell.raw/TmpEn-000_TmpEn.tran.tran ...
Important parameter values:
    start = 0 s
    outputstart = 0 s
    stop = 2.5 ns
    step = 2.5 ps
    maxstep = 50 ps
    ic = all
    useprevic = no
    skipdc = no
    reltol = 1e-03
    abstol(V) = 1 uV
    abstol(I) = 1 pA
    temp = 27 C
    tnom = 27 C
    tempeffects = all
    errpreset = moderate
    method = traponly
    lteratio = 3.5
    relref = sigglobal
    cmin = 0 F
    gmin = 1 pS


Output and IC/nodeset summary:
                 save   13      (current)
                 save   21      (voltage)
                 ic     4       

...............9..

Notice from spectre at time = 327.5 ps during transient analysis `TmpEn-000_TmpEn', during task `MDLControl'.
    Found trapezoidal ringing on node Vdd:p.

...............9.....

Notice from spectre at time = 377.5 ps during transient analysis `TmpEn-000_TmpEn', during task `MDLControl'.
    Found trapezoidal ringing on node Vdd:p.

...............9........

Notice from spectre at time = 427.5 ps during transient analysis `TmpEn-000_TmpEn', during task `MDLControl'.
    Found trapezoidal ringing on node Vdd:p.

...............9...........

Notice from spectre at time = 477.5 ps during transient analysis `TmpEn-000_TmpEn', during task `MDLControl'.
    Found trapezoidal ringing on node Vdd:p.

...............9...............

Notice from spectre at time = 527.5 ps during transient analysis `TmpEn-000_TmpEn', during task `MDLControl'.
    Found trapezoidal ringing on node Vdd:p.
        Further occurrences of this notice will be suppressed.

...............9...............8...............7...............6...............5...............4...............3...............2...............1...............0
Number of accepted tran steps =             149

Notice from spectre during transient analysis `TmpEn-000_TmpEn', during task `MDLControl'.
    Trapezoidal ringing is detected during tran analysis.
        Please use method=trap for better results and performance.


Maximum value achieved for any signal of each quantity: 
V: V(X2.2) = 1.121 V
I: I(Venb:p) = 1.915 mA
If your circuit contains signals of the same quantity that are vastly different in size (such as high voltage circuitry combined with low voltage control circuitry), you should consider specifying global option `bin_relref=yes'.

~~~~~~~~~~~~~~~~~~~~~~~~~~~~~~~~~
Post-Transient Simulation Summary
~~~~~~~~~~~~~~~~~~~~~~~~~~~~~~~~~
   -   To further speed up simulation, consider
          add ++aps on command line
~~~~~~~~~~~~~~~~~~~~~~~~~~~~~~~~~


During simulation, the CPU load for active processors is :
        Spectre  0 (100.0 %)     1 (100.0 %)     2 (100.0 %)     3 (100.0 %)
        Other   
Initial condition solution time: CPU = 949 us, elapsed = 970.125 us.
Intrinsic tran analysis time:    CPU = 33.052 ms, elapsed = 89.5591 ms.
Total time required for tran analysis `TmpEn-000_TmpEn': CPU = 35.116 ms, elapsed = 91.8059 ms.
Time accumulated: CPU = 472.164 ms, elapsed = 1.37535 s.
Peak resident memory used = 64.7 Mbytes.


Notice from spectre during task `MDLControl'.
    39 notices suppressed.


Value of Exported Variables in this iteration of the Search loop ( iteration = 6 ) :
Ten_Q1=0.0469166
Ten_QB1=0.83059
Tp_En=1.21738e-09
Tp_contam=2.82625e-10

++++++++++++++++++
TpEn = 1.18931e-09
++++++++++++++++++

Warning from spectre.
    WARNING (CMI-2178): Vgnd: Terminals must not be connected together (to node `0').


************************************************************
Transient Analysis `TmpEn-000_TmpEn': time = (0 s -> 2.5 ns)
************************************************************

Notice from spectre during IC analysis, during transient analysis `TmpEn-000_TmpEn', during task `MDLControl'.
    There are 4 IC nodes defined.

DC simulation time: CPU = 899 us, elapsed = 909.09 us.

Notice from spectre during transient analysis `TmpEn-000_TmpEn', during task `MDLControl'.
    No outputs were found. Loosening output filter criterion to `allpub'.


Opening the PSF file Cell.raw/TmpEn-000_TmpEn.tran.tran ...
Important parameter values:
    start = 0 s
    outputstart = 0 s
    stop = 2.5 ns
    step = 2.5 ps
    maxstep = 50 ps
    ic = all
    useprevic = no
    skipdc = no
    reltol = 1e-03
    abstol(V) = 1 uV
    abstol(I) = 1 pA
    temp = 27 C
    tnom = 27 C
    tempeffects = all
    errpreset = moderate
    method = traponly
    lteratio = 3.5
    relref = sigglobal
    cmin = 0 F
    gmin = 1 pS


Output and IC/nodeset summary:
                 save   13      (current)
                 save   21      (voltage)
                 ic     4       

...............9..

Notice from spectre at time = 327.5 ps during transient analysis `TmpEn-000_TmpEn', during task `MDLControl'.
    Found trapezoidal ringing on node Vdd:p.

...............9.....

Notice from spectre at time = 377.5 ps during transient analysis `TmpEn-000_TmpEn', during task `MDLControl'.
    Found trapezoidal ringing on node Vdd:p.

...............9........

Notice from spectre at time = 427.5 ps during transient analysis `TmpEn-000_TmpEn', during task `MDLControl'.
    Found trapezoidal ringing on node Vdd:p.

...............9...........

Notice from spectre at time = 477.5 ps during transient analysis `TmpEn-000_TmpEn', during task `MDLControl'.
    Found trapezoidal ringing on node Vdd:p.

...............9...............

Notice from spectre at time = 527.5 ps during transient analysis `TmpEn-000_TmpEn', during task `MDLControl'.
    Found trapezoidal ringing on node Vdd:p.
        Further occurrences of this notice will be suppressed.

...............9...............8...............7...............6...............5...............4...............3...............2...............1...............0
Number of accepted tran steps =             147

Notice from spectre during transient analysis `TmpEn-000_TmpEn', during task `MDLControl'.
    Trapezoidal ringing is detected during tran analysis.
        Please use method=trap for better results and performance.


Maximum value achieved for any signal of each quantity: 
V: V(X2.2) = 1.138 V
I: I(Venb:p) = 1.915 mA
If your circuit contains signals of the same quantity that are vastly different in size (such as high voltage circuitry combined with low voltage control circuitry), you should consider specifying global option `bin_relref=yes'.

~~~~~~~~~~~~~~~~~~~~~~~~~~~~~~~~~
Post-Transient Simulation Summary
~~~~~~~~~~~~~~~~~~~~~~~~~~~~~~~~~
   -   To further speed up simulation, consider
          add ++aps on command line
~~~~~~~~~~~~~~~~~~~~~~~~~~~~~~~~~


During simulation, the CPU load for active processors is :
        Spectre  0 (100.0 %)     1 (100.0 %)     2 (100.0 %)     3 (100.0 %)
        Other   
Initial condition solution time: CPU = 951 us, elapsed = 8.62789 ms.
Intrinsic tran analysis time:    CPU = 32.562 ms, elapsed = 82.0191 ms.
Total time required for tran analysis `TmpEn-000_TmpEn': CPU = 34.597 ms, elapsed = 91.861 ms.
Time accumulated: CPU = 512.745 ms, elapsed = 1.4733 s.
Peak resident memory used = 64.8 Mbytes.


Notice from spectre during task `MDLControl'.
    38 notices suppressed.


Value of Exported Variables in this iteration of the Search loop ( iteration = 7 ) :
Ten_Q1=0.0271215
Ten_QB1=0.876833
Tp_En=1.18931e-09
Tp_contam=3.10687e-10

++++++++++++++++++
TpEn = 1.17528e-09
++++++++++++++++++

Warning from spectre.
    WARNING (CMI-2178): Vgnd: Terminals must not be connected together (to node `0').


************************************************************
Transient Analysis `TmpEn-000_TmpEn': time = (0 s -> 2.5 ns)
************************************************************

Notice from spectre during IC analysis, during transient analysis `TmpEn-000_TmpEn', during task `MDLControl'.
    There are 4 IC nodes defined.

DC simulation time: CPU = 939 us, elapsed = 10.9072 ms.

Notice from spectre during transient analysis `TmpEn-000_TmpEn', during task `MDLControl'.
    No outputs were found. Loosening output filter criterion to `allpub'.


Opening the PSF file Cell.raw/TmpEn-000_TmpEn.tran.tran ...
Important parameter values:
    start = 0 s
    outputstart = 0 s
    stop = 2.5 ns
    step = 2.5 ps
    maxstep = 50 ps
    ic = all
    useprevic = no
    skipdc = no
    reltol = 1e-03
    abstol(V) = 1 uV
    abstol(I) = 1 pA
    temp = 27 C
    tnom = 27 C
    tempeffects = all
    errpreset = moderate
    method = traponly
    lteratio = 3.5
    relref = sigglobal
    cmin = 0 F
    gmin = 1 pS


Output and IC/nodeset summary:
                 save   13      (current)
                 save   21      (voltage)
                 ic     4       

...............9..

Notice from spectre at time = 327.5 ps during transient analysis `TmpEn-000_TmpEn', during task `MDLControl'.
    Found trapezoidal ringing on node Vdd:p.

...............9.....

Notice from spectre at time = 377.5 ps during transient analysis `TmpEn-000_TmpEn', during task `MDLControl'.
    Found trapezoidal ringing on node Vdd:p.

...............9........

Notice from spectre at time = 427.5 ps during transient analysis `TmpEn-000_TmpEn', during task `MDLControl'.
    Found trapezoidal ringing on node Vdd:p.

...............9...........

Notice from spectre at time = 477.5 ps during transient analysis `TmpEn-000_TmpEn', during task `MDLControl'.
    Found trapezoidal ringing on node Vdd:p.

...............9...............

Notice from spectre at time = 527.5 ps during transient analysis `TmpEn-000_TmpEn', during task `MDLControl'.
    Found trapezoidal ringing on node Vdd:p.
        Further occurrences of this notice will be suppressed.

...............9...............8...............7...............6...............5...............4...............3...............2...............1...............0
Number of accepted tran steps =             145

Notice from spectre during transient analysis `TmpEn-000_TmpEn', during task `MDLControl'.
    Trapezoidal ringing is detected during tran analysis.
        Please use method=trap for better results and performance.


Maximum value achieved for any signal of each quantity: 
V: V(X2.2) = 1.146 V
I: I(Venb:p) = 1.915 mA
If your circuit contains signals of the same quantity that are vastly different in size (such as high voltage circuitry combined with low voltage control circuitry), you should consider specifying global option `bin_relref=yes'.

~~~~~~~~~~~~~~~~~~~~~~~~~~~~~~~~~
Post-Transient Simulation Summary
~~~~~~~~~~~~~~~~~~~~~~~~~~~~~~~~~
   -   To further speed up simulation, consider
          add ++aps on command line
~~~~~~~~~~~~~~~~~~~~~~~~~~~~~~~~~


During simulation, the CPU load for active processors is :
        Spectre  0 (100.0 %)     1 (100.0 %)     2 (100.0 %)     3 (100.0 %)
        Other   
Initial condition solution time: CPU = 986 us, elapsed = 10.9661 ms.
Intrinsic tran analysis time:    CPU = 32.248 ms, elapsed = 60.0648 ms.
Total time required for tran analysis `TmpEn-000_TmpEn': CPU = 34.339 ms, elapsed = 72.284 ms.
Time accumulated: CPU = 552.989 ms, elapsed = 1.55158 s.
Peak resident memory used = 64.8 Mbytes.


Notice from spectre during task `MDLControl'.
    35 notices suppressed.


Value of Exported Variables in this iteration of the Search loop ( iteration = 8 ) :
Ten_Q1=0.020254
Ten_QB1=0.895813
Tp_En=1.17528e-09
Tp_contam=3.24719e-10

++++++++++++++++++
TpEn = 1.16827e-09
++++++++++++++++++

Warning from spectre.
    WARNING (CMI-2178): Vgnd: Terminals must not be connected together (to node `0').


************************************************************
Transient Analysis `TmpEn-000_TmpEn': time = (0 s -> 2.5 ns)
************************************************************

Notice from spectre during IC analysis, during transient analysis `TmpEn-000_TmpEn', during task `MDLControl'.
    There are 4 IC nodes defined.

DC simulation time: CPU = 918 us, elapsed = 972.986 us.

Notice from spectre during transient analysis `TmpEn-000_TmpEn', during task `MDLControl'.
    No outputs were found. Loosening output filter criterion to `allpub'.


Opening the PSF file Cell.raw/TmpEn-000_TmpEn.tran.tran ...
Important parameter values:
    start = 0 s
    outputstart = 0 s
    stop = 2.5 ns
    step = 2.5 ps
    maxstep = 50 ps
    ic = all
    useprevic = no
    skipdc = no
    reltol = 1e-03
    abstol(V) = 1 uV
    abstol(I) = 1 pA
    temp = 27 C
    tnom = 27 C
    tempeffects = all
    errpreset = moderate
    method = traponly
    lteratio = 3.5
    relref = sigglobal
    cmin = 0 F
    gmin = 1 pS


Output and IC/nodeset summary:
                 save   13      (current)
                 save   21      (voltage)
                 ic     4       

...............9..

Notice from spectre at time = 327.5 ps during transient analysis `TmpEn-000_TmpEn', during task `MDLControl'.
    Found trapezoidal ringing on node Vdd:p.

...............9.....

Notice from spectre at time = 377.5 ps during transient analysis `TmpEn-000_TmpEn', during task `MDLControl'.
    Found trapezoidal ringing on node Vdd:p.

...............9........

Notice from spectre at time = 427.5 ps during transient analysis `TmpEn-000_TmpEn', during task `MDLControl'.
    Found trapezoidal ringing on node Vdd:p.

...............9...........

Notice from spectre at time = 477.5 ps during transient analysis `TmpEn-000_TmpEn', during task `MDLControl'.
    Found trapezoidal ringing on node Vdd:p.

...............9...............

Notice from spectre at time = 527.5 ps during transient analysis `TmpEn-000_TmpEn', during task `MDLControl'.
    Found trapezoidal ringing on node Vdd:p.
        Further occurrences of this notice will be suppressed.

...............9...............8...............7...............6...............5...............4...............3...............2...............1...............0
Number of accepted tran steps =             149

Notice from spectre during transient analysis `TmpEn-000_TmpEn', during task `MDLControl'.
    Trapezoidal ringing is detected during tran analysis.
        Please use method=trap for better results and performance.


Maximum value achieved for any signal of each quantity: 
V: V(X2.2) = 1.149 V
I: I(Venb:p) = 1.915 mA
If your circuit contains signals of the same quantity that are vastly different in size (such as high voltage circuitry combined with low voltage control circuitry), you should consider specifying global option `bin_relref=yes'.

~~~~~~~~~~~~~~~~~~~~~~~~~~~~~~~~~
Post-Transient Simulation Summary
~~~~~~~~~~~~~~~~~~~~~~~~~~~~~~~~~
   -   To further speed up simulation, consider
          add ++aps on command line
~~~~~~~~~~~~~~~~~~~~~~~~~~~~~~~~~


During simulation, the CPU load for active processors is :
        Spectre  0 (100.0 %)     1 (100.0 %)     2 (100.0 %)     3 (100.0 %)
        Other   
Initial condition solution time: CPU = 965 us, elapsed = 1.02901 ms.
Intrinsic tran analysis time:    CPU = 33.784 ms, elapsed = 91.2752 ms.
Total time required for tran analysis `TmpEn-000_TmpEn': CPU = 36.038 ms, elapsed = 93.751 ms.
Time accumulated: CPU = 594.966 ms, elapsed = 1.65335 s.
Peak resident memory used = 64.8 Mbytes.


Notice from spectre during task `MDLControl'.
    40 notices suppressed.


Value of Exported Variables in this iteration of the Search loop ( iteration = 9 ) :
Ten_Q1=0.0173351
Ten_QB1=0.904389
Tp_En=1.16827e-09
Tp_contam=3.31734e-10

++++++++++++++++++
TpEn = 1.17177e-09
++++++++++++++++++

Warning from spectre.
    WARNING (CMI-2178): Vgnd: Terminals must not be connected together (to node `0').


************************************************************
Transient Analysis `TmpEn-000_TmpEn': time = (0 s -> 2.5 ns)
************************************************************

Notice from spectre during IC analysis, during transient analysis `TmpEn-000_TmpEn', during task `MDLControl'.
    There are 4 IC nodes defined.

DC simulation time: CPU = 951 us, elapsed = 10.9179 ms.

Notice from spectre during transient analysis `TmpEn-000_TmpEn', during task `MDLControl'.
    No outputs were found. Loosening output filter criterion to `allpub'.


Opening the PSF file Cell.raw/TmpEn-000_TmpEn.tran.tran ...
Important parameter values:
    start = 0 s
    outputstart = 0 s
    stop = 2.5 ns
    step = 2.5 ps
    maxstep = 50 ps
    ic = all
    useprevic = no
    skipdc = no
    reltol = 1e-03
    abstol(V) = 1 uV
    abstol(I) = 1 pA
    temp = 27 C
    tnom = 27 C
    tempeffects = all
    errpreset = moderate
    method = traponly
    lteratio = 3.5
    relref = sigglobal
    cmin = 0 F
    gmin = 1 pS


Output and IC/nodeset summary:
                 save   13      (current)
                 save   21      (voltage)
                 ic     4       

...............9..

Notice from spectre at time = 327.5 ps during transient analysis `TmpEn-000_TmpEn', during task `MDLControl'.
    Found trapezoidal ringing on node Vdd:p.

...............9.....

Notice from spectre at time = 377.5 ps during transient analysis `TmpEn-000_TmpEn', during task `MDLControl'.
    Found trapezoidal ringing on node Vdd:p.

...............9........

Notice from spectre at time = 427.5 ps during transient analysis `TmpEn-000_TmpEn', during task `MDLControl'.
    Found trapezoidal ringing on node Vdd:p.

...............9...........

Notice from spectre at time = 477.5 ps during transient analysis `TmpEn-000_TmpEn', during task `MDLControl'.
    Found trapezoidal ringing on node Vdd:p.

...............9...............

Notice from spectre at time = 527.5 ps during transient analysis `TmpEn-000_TmpEn', during task `MDLControl'.
    Found trapezoidal ringing on node Vdd:p.
        Further occurrences of this notice will be suppressed.

...............9...............8...............7...............6...............5...............4...............3...............2...............1...............0
Number of accepted tran steps =             145

Notice from spectre during transient analysis `TmpEn-000_TmpEn', during task `MDLControl'.
    Trapezoidal ringing is detected during tran analysis.
        Please use method=trap for better results and performance.


Maximum value achieved for any signal of each quantity: 
V: V(X2.2) = 1.147 V
I: I(Venb:p) = 1.915 mA
If your circuit contains signals of the same quantity that are vastly different in size (such as high voltage circuitry combined with low voltage control circuitry), you should consider specifying global option `bin_relref=yes'.

~~~~~~~~~~~~~~~~~~~~~~~~~~~~~~~~~
Post-Transient Simulation Summary
~~~~~~~~~~~~~~~~~~~~~~~~~~~~~~~~~
   -   To further speed up simulation, consider
          add ++aps on command line
~~~~~~~~~~~~~~~~~~~~~~~~~~~~~~~~~


During simulation, the CPU load for active processors is :
        Spectre  0 (100.0 %)     1 (100.0 %)     2 (100.0 %)     3 (100.0 %)
        Other   
Initial condition solution time: CPU = 1.003 ms, elapsed = 10.9801 ms.
Intrinsic tran analysis time:    CPU = 32.927 ms, elapsed = 84.208 ms.
Total time required for tran analysis `TmpEn-000_TmpEn': CPU = 35.186 ms, elapsed = 96.6399 ms.
Time accumulated: CPU = 636.352 ms, elapsed = 1.76686 s.
Peak resident memory used = 64.8 Mbytes.


Notice from spectre during task `MDLControl'.
    36 notices suppressed.


Value of Exported Variables in this iteration of the Search loop ( iteration = 10 ) :
Ten_Q1=0.0187481
Ten_QB1=0.900176
Tp_En=1.17177e-09
Tp_contam=3.28227e-10

++++++++++++++++++
TpEn = 1.17353e-09
++++++++++++++++++

Warning from spectre.
    WARNING (CMI-2178): Vgnd: Terminals must not be connected together (to node `0').


************************************************************
Transient Analysis `TmpEn-000_TmpEn': time = (0 s -> 2.5 ns)
************************************************************

Notice from spectre during IC analysis, during transient analysis `TmpEn-000_TmpEn', during task `MDLControl'.
    There are 4 IC nodes defined.

DC simulation time: CPU = 931 us, elapsed = 1.04594 ms.

Notice from spectre during transient analysis `TmpEn-000_TmpEn', during task `MDLControl'.
    No outputs were found. Loosening output filter criterion to `allpub'.


Opening the PSF file Cell.raw/TmpEn-000_TmpEn.tran.tran ...
Important parameter values:
    start = 0 s
    outputstart = 0 s
    stop = 2.5 ns
    step = 2.5 ps
    maxstep = 50 ps
    ic = all
    useprevic = no
    skipdc = no
    reltol = 1e-03
    abstol(V) = 1 uV
    abstol(I) = 1 pA
    temp = 27 C
    tnom = 27 C
    tempeffects = all
    errpreset = moderate
    method = traponly
    lteratio = 3.5
    relref = sigglobal
    cmin = 0 F
    gmin = 1 pS


Output and IC/nodeset summary:
                 save   13      (current)
                 save   21      (voltage)
                 ic     4       

...............9..

Notice from spectre at time = 327.5 ps during transient analysis `TmpEn-000_TmpEn', during task `MDLControl'.
    Found trapezoidal ringing on node Vdd:p.

...............9.....

Notice from spectre at time = 377.5 ps during transient analysis `TmpEn-000_TmpEn', during task `MDLControl'.
    Found trapezoidal ringing on node Vdd:p.

...............9........

Notice from spectre at time = 427.5 ps during transient analysis `TmpEn-000_TmpEn', during task `MDLControl'.
    Found trapezoidal ringing on node Vdd:p.

...............9...........

Notice from spectre at time = 477.5 ps during transient analysis `TmpEn-000_TmpEn', during task `MDLControl'.
    Found trapezoidal ringing on node Vdd:p.

...............9...............

Notice from spectre at time = 527.5 ps during transient analysis `TmpEn-000_TmpEn', during task `MDLControl'.
    Found trapezoidal ringing on node Vdd:p.
        Further occurrences of this notice will be suppressed.

...............9...............8...............7...............6...............5...............4...............3...............2...............1...............0
Number of accepted tran steps =             145

Notice from spectre during transient analysis `TmpEn-000_TmpEn', during task `MDLControl'.
    Trapezoidal ringing is detected during tran analysis.
        Please use method=trap for better results and performance.


Maximum value achieved for any signal of each quantity: 
V: V(X2.2) = 1.147 V
I: I(Venb:p) = 1.915 mA
If your circuit contains signals of the same quantity that are vastly different in size (such as high voltage circuitry combined with low voltage control circuitry), you should consider specifying global option `bin_relref=yes'.

~~~~~~~~~~~~~~~~~~~~~~~~~~~~~~~~~
Post-Transient Simulation Summary
~~~~~~~~~~~~~~~~~~~~~~~~~~~~~~~~~
   -   To further speed up simulation, consider
          add ++aps on command line
~~~~~~~~~~~~~~~~~~~~~~~~~~~~~~~~~


During simulation, the CPU load for active processors is :
        Spectre  0 (100.0 %)     1 (100.0 %)     2 (100.0 %)     3 (100.0 %)
        Other   
Initial condition solution time: CPU = 986 us, elapsed = 1.17397 ms.
Intrinsic tran analysis time:    CPU = 34.023 ms, elapsed = 94.408 ms.
Total time required for tran analysis `TmpEn-000_TmpEn': CPU = 36.377 ms, elapsed = 98.3851 ms.
Time accumulated: CPU = 678.807 ms, elapsed = 1.88234 s.
Peak resident memory used = 64.8 Mbytes.


Notice from spectre during task `MDLControl'.
    35 notices suppressed.


Value of Exported Variables in this iteration of the Search loop ( iteration = 11 ) :
Ten_Q1=0.0194915
Ten_QB1=0.898012
Tp_En=1.17353e-09
Tp_contam=3.26473e-10

++++++++++++++++++
TpEn = 1.17265e-09
++++++++++++++++++

Warning from spectre.
    WARNING (CMI-2178): Vgnd: Terminals must not be connected together (to node `0').


************************************************************
Transient Analysis `TmpEn-000_TmpEn': time = (0 s -> 2.5 ns)
************************************************************

Notice from spectre during IC analysis, during transient analysis `TmpEn-000_TmpEn', during task `MDLControl'.
    There are 4 IC nodes defined.

DC simulation time: CPU = 941 us, elapsed = 1.0941 ms.

Notice from spectre during transient analysis `TmpEn-000_TmpEn', during task `MDLControl'.
    No outputs were found. Loosening output filter criterion to `allpub'.


Opening the PSF file Cell.raw/TmpEn-000_TmpEn.tran.tran ...
Important parameter values:
    start = 0 s
    outputstart = 0 s
    stop = 2.5 ns
    step = 2.5 ps
    maxstep = 50 ps
    ic = all
    useprevic = no
    skipdc = no
    reltol = 1e-03
    abstol(V) = 1 uV
    abstol(I) = 1 pA
    temp = 27 C
    tnom = 27 C
    tempeffects = all
    errpreset = moderate
    method = traponly
    lteratio = 3.5
    relref = sigglobal
    cmin = 0 F
    gmin = 1 pS


Output and IC/nodeset summary:
                 save   13      (current)
                 save   21      (voltage)
                 ic     4       

...............9..

Notice from spectre at time = 327.5 ps during transient analysis `TmpEn-000_TmpEn', during task `MDLControl'.
    Found trapezoidal ringing on node Vdd:p.

...............9.....

Notice from spectre at time = 377.5 ps during transient analysis `TmpEn-000_TmpEn', during task `MDLControl'.
    Found trapezoidal ringing on node Vdd:p.

...............9........

Notice from spectre at time = 427.5 ps during transient analysis `TmpEn-000_TmpEn', during task `MDLControl'.
    Found trapezoidal ringing on node Vdd:p.

...............9...........

Notice from spectre at time = 477.5 ps during transient analysis `TmpEn-000_TmpEn', during task `MDLControl'.
    Found trapezoidal ringing on node Vdd:p.

...............9...............

Notice from spectre at time = 527.5 ps during transient analysis `TmpEn-000_TmpEn', during task `MDLControl'.
    Found trapezoidal ringing on node Vdd:p.
        Further occurrences of this notice will be suppressed.

...............9...............8...............7...............6...............5...............4...............3...............2...............1...............0
Number of accepted tran steps =             147

Notice from spectre during transient analysis `TmpEn-000_TmpEn', during task `MDLControl'.
    Trapezoidal ringing is detected during tran analysis.
        Please use method=trap for better results and performance.


Maximum value achieved for any signal of each quantity: 
V: V(X2.2) = 1.147 V
I: I(Venb:p) = 1.915 mA
If your circuit contains signals of the same quantity that are vastly different in size (such as high voltage circuitry combined with low voltage control circuitry), you should consider specifying global option `bin_relref=yes'.

~~~~~~~~~~~~~~~~~~~~~~~~~~~~~~~~~
Post-Transient Simulation Summary
~~~~~~~~~~~~~~~~~~~~~~~~~~~~~~~~~
   -   To further speed up simulation, consider
          add ++aps on command line
~~~~~~~~~~~~~~~~~~~~~~~~~~~~~~~~~


During simulation, the CPU load for active processors is :
        Spectre  0 (100.0 %)     1 (100.0 %)     2 (100.0 %)     3 (100.0 %)
        Other   
Initial condition solution time: CPU = 996 us, elapsed = 1.22404 ms.
Intrinsic tran analysis time:    CPU = 34.281 ms, elapsed = 93.8509 ms.
Total time required for tran analysis `TmpEn-000_TmpEn': CPU = 36.724 ms, elapsed = 97.9519 ms.
Time accumulated: CPU = 721.785 ms, elapsed = 1.99537 s.
Peak resident memory used = 64.8 Mbytes.


Notice from spectre during task `MDLControl'.
    36 notices suppressed.


Value of Exported Variables in this iteration of the Search loop ( iteration = 12 ) :
Ten_Q1=0.0191175
Ten_QB1=0.899099
Tp_En=1.17265e-09
Tp_contam=3.2735e-10

Warning from spectre.
    WARNING (CMI-2178): Vgnd: Terminals must not be connected together (to node `0').


++++++++++++++++++++++++++++++++++++++++++
Optimization completed. TpEn = 1.17177e-09
++++++++++++++++++++++++++++++++++++++++++

************************************************************
Transient Analysis `TmpEn-000_TmpEn': time = (0 s -> 2.5 ns)
************************************************************

Notice from spectre during IC analysis, during transient analysis `TmpEn-000_TmpEn', during task `MDLControl'.
    There are 4 IC nodes defined.

DC simulation time: CPU = 929 us, elapsed = 1.04403 ms.

Notice from spectre during transient analysis `TmpEn-000_TmpEn', during task `MDLControl'.
    No outputs were found. Loosening output filter criterion to `allpub'.


Opening the PSF file Cell.raw/TmpEn-000_TmpEn.tran.tran ...
Important parameter values:
    start = 0 s
    outputstart = 0 s
    stop = 2.5 ns
    step = 2.5 ps
    maxstep = 50 ps
    ic = all
    useprevic = no
    skipdc = no
    reltol = 1e-03
    abstol(V) = 1 uV
    abstol(I) = 1 pA
    temp = 27 C
    tnom = 27 C
    tempeffects = all
    errpreset = moderate
    method = traponly
    lteratio = 3.5
    relref = sigglobal
    cmin = 0 F
    gmin = 1 pS


Output and IC/nodeset summary:
                 save   13      (current)
                 save   21      (voltage)
                 ic     4       

...............9..

Notice from spectre at time = 327.5 ps during transient analysis `TmpEn-000_TmpEn', during task `MDLControl'.
    Found trapezoidal ringing on node Vdd:p.

...............9.....

Notice from spectre at time = 377.5 ps during transient analysis `TmpEn-000_TmpEn', during task `MDLControl'.
    Found trapezoidal ringing on node Vdd:p.

...............9........

Notice from spectre at time = 427.5 ps during transient analysis `TmpEn-000_TmpEn', during task `MDLControl'.
    Found trapezoidal ringing on node Vdd:p.

...............9...........

Notice from spectre at time = 477.5 ps during transient analysis `TmpEn-000_TmpEn', during task `MDLControl'.
    Found trapezoidal ringing on node Vdd:p.

...............9...............

Notice from spectre at time = 527.5 ps during transient analysis `TmpEn-000_TmpEn', during task `MDLControl'.
    Found trapezoidal ringing on node Vdd:p.
        Further occurrences of this notice will be suppressed.

...............9...............8...............7...............6...............5...............4...............3...............2...............1...............0
Number of accepted tran steps =             145

Notice from spectre during transient analysis `TmpEn-000_TmpEn', during task `MDLControl'.
    Trapezoidal ringing is detected during tran analysis.
        Please use method=trap for better results and performance.


Maximum value achieved for any signal of each quantity: 
V: V(X2.2) = 1.147 V
I: I(Venb:p) = 1.915 mA
If your circuit contains signals of the same quantity that are vastly different in size (such as high voltage circuitry combined with low voltage control circuitry), you should consider specifying global option `bin_relref=yes'.

~~~~~~~~~~~~~~~~~~~~~~~~~~~~~~~~~
Post-Transient Simulation Summary
~~~~~~~~~~~~~~~~~~~~~~~~~~~~~~~~~
   -   To further speed up simulation, consider
          add ++aps on command line
~~~~~~~~~~~~~~~~~~~~~~~~~~~~~~~~~


During simulation, the CPU load for active processors is :
        Spectre  0 (100.0 %)     1 (100.0 %)     2 (100.0 %)     3 (100.0 %)
        Other   
Initial condition solution time: CPU = 980 us, elapsed = 1.17111 ms.
Intrinsic tran analysis time:    CPU = 33.896 ms, elapsed = 98.6822 ms.
Total time required for tran analysis `TmpEn-000_TmpEn': CPU = 36.224 ms, elapsed = 102.679 ms.
Time accumulated: CPU = 764.244 ms, elapsed = 2.11606 s.
Peak resident memory used = 64.8 Mbytes.


Notice from spectre during task `MDLControl'.
    36 notices suppressed.


Aggregate audit (12:09:40 PM, Fri May 1, 2020):
Time used: CPU = 768 ms, elapsed = 2.16 s, util. = 35.5%.
Time spent in licensing: elapsed = 20 ms.
Peak memory used = 65.3 Mbytes.
Simulation started at: 12:09:37 PM, Fri May 1, 2020, ended at: 12:09:40 PM, Fri May 1, 2020, with elapsed time (wall clock): 2.16 s.
spectre completes with 0 errors, 19 warnings, and 119 notices.
