
Spectre (R) Circuit Simulator
Version 16.1.0.673.isr14 64bit -- 30 Mar 2018
Copyright (C) 1989-2018 Cadence Design Systems, Inc. All rights reserved worldwide. Cadence and Spectre are registered trademarks of Cadence Design Systems, Inc. All others are the property of their respective holders.

Includes RSA BSAFE(R) Cryptographic or Security Protocol Software from RSA Security, Inc.

User: brunozimmer   Host: itacolomi.lapsi   HostID: 7F0100   PID: 2098
Memory  available: 935.0758 MB  physical: 33.7038 GB
Linux   : CentOS Linux release 7.6.1810 (Core) 
CPU Type: Intel(R) Xeon(R) CPU E3-1220 V2 @ 3.10GHz
All processors running at 3300.0 MHz
        Socket: Processors
        0:       0,  1,  2,  3
        
System load averages (1min, 5min, 15min) : 115.3 %, 109.0 %, 108.0 %


Simulating `Cell.scs' on itacolomi.lapsi at 1:19:04 PM, Fri May 1, 2020 (process id: 2098).
Current working directory: /home/brunozimmer/Documentos/Netlist_OneCellMem/W_Capacitance/Test_Write/Q_high/Down_to_Down
Command line:
    /tools/cadence/SPECTRE161/tools.lnx86/bin/spectre -64 =mdl  \
        TpWrite.mdl Cell.scs

Loading /tools/cadence/SPECTRE161/tools.lnx86/cmi/lib/64bit/5.0/libinfineon_sh.so ...
Loading /tools/cadence/SPECTRE161/tools.lnx86/cmi/lib/64bit/5.0/libphilips_o_sh.so ...
Loading /tools/cadence/SPECTRE161/tools.lnx86/cmi/lib/64bit/5.0/libphilips_sh.so ...
Loading /tools/cadence/SPECTRE161/tools.lnx86/cmi/lib/64bit/5.0/libsparam_sh.so ...
Loading /tools/cadence/SPECTRE161/tools.lnx86/cmi/lib/64bit/5.0/libstmodels_sh.so ...
Loading /tools/cadence/SPECTRE161/tools.lnx86/spectre/lib/64bit/mdl/libSpectreEH_sh.so ...

Warning from spectre.
    WARNING (MDL-1452): line 1, column 1: syntax error before or at: *
            unrecognised statement.

Reading file:  /home/brunozimmer/Documentos/Netlist_OneCellMem/W_Capacitance/Test_Write/Q_high/Down_to_Down/Cell.scs
Reading file:  /tools/cadence/SPECTRE161/tools.lnx86/spectre/etc/configs/mapsubckt.cfg
Reading file:  /tools/cadence/SPECTRE161/tools.lnx86/spectre/etc/configs/spectre.cfg
Reading file:  /home/brunozimmer/Documentos/Netlist_OneCellMem/W_Capacitance/Test_Write/Q_high/Down_to_Down/TRISTATE.spi
Reading file:  /home/brunozimmer/Documentos/Netlist_OneCellMem/W_Capacitance/Test_Write/Q_high/Down_to_Down/45nm_LP.pm
Reading file:  /home/brunozimmer/Documentos/Netlist_OneCellMem/W_Capacitance/Test_Write/Q_high/Down_to_Down/INV.spi
Reading file:  /home/brunozimmer/Documentos/Netlist_OneCellMem/W_Capacitance/Test_Write/Q_high/Down_to_Down/PassTransistor.spi
Time for NDB Parsing: CPU = 197.733 ms, elapsed = 745.344 ms.
Time accumulated: CPU = 214.494 ms, elapsed = 745.351 ms.
Peak resident memory used = 53 Mbytes.


Warning from spectre during circuit read-in.
    WARNING (SFE-397): A primitive with name NMOS_VTL already exist, will override.
    WARNING (SFE-397): A primitive with name PMOS_VTL already exist, will override.
    WARNING (SFE-397): A primitive with name NMOS_VTL already exist, will override.
    WARNING (SFE-397): A primitive with name PMOS_VTL already exist, will override.
    WARNING (SFE-397): A primitive with name NMOS_VTL already exist, will override.
        Further occurrences of this warning will be suppressed.

Reading link:  /tools/cadence/SPECTRE161/tools.lnx86/spectre/etc/ahdl/discipline.h
Reading file:  /tools/cadence/SPECTRE161/tools.lnx86/spectre/etc/ahdl/disciplines.vams
Reading link:  /tools/cadence/SPECTRE161/tools.lnx86/spectre/etc/ahdl/constants.h
Reading file:  /tools/cadence/SPECTRE161/tools.lnx86/spectre/etc/ahdl/constants.vams
Time for Elaboration: CPU = 18.041 ms, elapsed = 46.087 ms.
Time accumulated: CPU = 232.721 ms, elapsed = 791.792 ms.
Peak resident memory used = 59.8 Mbytes.


Time for EDB Visiting: CPU = 990 us, elapsed = 1.04189 ms.
Time accumulated: CPU = 233.95 ms, elapsed = 793.288 ms.
Peak resident memory used = 60.4 Mbytes.


Notice from spectre during topology check.
    Only one connection to node `Gnd5'.


Global user options:
             rawfmt = psfbin

Scoped user options:

Circuit inventory:
              nodes 21
              bsim4 17    
          capacitor 2     
            vsource 14    

Analysis and control statement inventory:
               tran 1     

Output statements:
             .probe 0     
           .measure 0     
               save 0     


Notice from spectre.
    1 warning suppressed.

Time for parsing: CPU = 2.772 ms, elapsed = 51.8179 ms.
Time accumulated: CPU = 236.883 ms, elapsed = 845.434 ms.
Peak resident memory used = 61.9 Mbytes.

~~~~~~~~~~~~~~~~~~~~~~
Pre-Simulation Summary
~~~~~~~~~~~~~~~~~~~~~~
~~~~~~~~~~~~~~~~~~~~~~

+++++++++++
TpWl = (1n)
+++++++++++

************************************************************
Transient Analysis `TmpWL-000_TmpWL': time = (0 s -> 2.5 ns)
************************************************************

Notice from spectre during IC analysis, during transient analysis `TmpWL-000_TmpWL', during task `MDLControl'.
    There are 4 IC nodes defined.
Notice from spectre during IC analysis, during transient analysis `TmpWL-000_TmpWL', during task `MDLControl'.
    GminDC = 1 pS is large enough to noticeably affect the DC solution.
        dV(X3.2) = -25.5891 mV
        Use the `gmin_check' option to eliminate or expand this report.

DC simulation time: CPU = 1.445 ms, elapsed = 1.44506 ms.

Notice from spectre during transient analysis `TmpWL-000_TmpWL', during task `MDLControl'.
    No outputs were found. Loosening output filter criterion to `allpub'.


Opening the PSF file Cell.raw/TmpWL-000_TmpWL.tran.tran ...
Important parameter values:
    start = 0 s
    outputstart = 0 s
    stop = 2.5 ns
    step = 2.5 ps
    maxstep = 50 ps
    ic = all
    useprevic = no
    skipdc = no
    reltol = 1e-03
    abstol(V) = 1 uV
    abstol(I) = 1 pA
    temp = 27 C
    tnom = 27 C
    tempeffects = all
    errpreset = moderate
    method = traponly
    lteratio = 3.5
    relref = sigglobal
    cmin = 0 F
    gmin = 1 pS


Output and IC/nodeset summary:
                 save   13      (current)
                 save   21      (voltage)
                 ic     4       

...............9..

Notice from spectre at time = 327.5 ps during transient analysis `TmpWL-000_TmpWL', during task `MDLControl'.
    Found trapezoidal ringing on node Vdd:p.

...............9.....

Notice from spectre at time = 377.5 ps during transient analysis `TmpWL-000_TmpWL', during task `MDLControl'.
    Found trapezoidal ringing on node Vdd:p.

...............9........

Notice from spectre at time = 427.5 ps during transient analysis `TmpWL-000_TmpWL', during task `MDLControl'.
    Found trapezoidal ringing on node Vdd:p.

...............9...........

Notice from spectre at time = 477.5 ps during transient analysis `TmpWL-000_TmpWL', during task `MDLControl'.
    Found trapezoidal ringing on node Vdd:p.

...............9...............

Notice from spectre at time = 499 ps during transient analysis `TmpWL-000_TmpWL', during task `MDLControl'.
    Found trapezoidal ringing on node Vdd:p.
        Further occurrences of this notice will be suppressed.

...............9...............8...............7...............6...............5...............4...............3...............2...............1...............0
Number of accepted tran steps =             161

Notice from spectre during transient analysis `TmpWL-000_TmpWL', during task `MDLControl'.
    Trapezoidal ringing is detected during tran analysis.
        Please use method=trap for better results and performance.


Maximum value achieved for any signal of each quantity: 
V: V(X2.2) = 1.196 V
I: I(Venb:p) = 1.745 mA
If your circuit contains signals of the same quantity that are vastly different in size (such as high voltage circuitry combined with low voltage control circuitry), you should consider specifying global option `bin_relref=yes'.

~~~~~~~~~~~~~~~~~~~~~~~~~~~~~~~~~
Post-Transient Simulation Summary
~~~~~~~~~~~~~~~~~~~~~~~~~~~~~~~~~
   -   To further speed up simulation, consider
          add ++aps on command line
~~~~~~~~~~~~~~~~~~~~~~~~~~~~~~~~~


During simulation, the CPU load for active processors is :
        Spectre  0 (100.0 %)     1 (100.0 %)     2 (100.0 %)     3 (100.0 %)
        Other   
Initial condition solution time: CPU = 1.494 ms, elapsed = 1.49512 ms.
Intrinsic tran analysis time:    CPU = 38.722 ms, elapsed = 105.307 ms.
Total time required for tran analysis `TmpWL-000_TmpWL': CPU = 41.662 ms, elapsed = 108.29 ms.
Time accumulated: CPU = 285.557 ms, elapsed = 1.01432 s.
Peak resident memory used = 64.5 Mbytes.


Notice from spectre during task `MDLControl'.
    29 notices suppressed.


Value of Exported Variables in this iteration of the Search loop ( iteration = 1 ) :
Ten_Q=7.88367e-05
Ten_QB=0.999988
Tp_wl=1e-09
Tp_wl1=5e-10

+++++++++++++
TpWl = (1.5n)
+++++++++++++

Warning from spectre.
    WARNING (CMI-2178): Vgnd: Terminals must not be connected together (to node `0').


************************************************************
Transient Analysis `TmpWL-000_TmpWL': time = (0 s -> 2.5 ns)
************************************************************

Notice from spectre during IC analysis, during transient analysis `TmpWL-000_TmpWL', during task `MDLControl'.
    There are 4 IC nodes defined.
Notice from spectre during IC analysis, during transient analysis `TmpWL-000_TmpWL', during task `MDLControl'.
    GminDC = 1 pS is large enough to noticeably affect the DC solution.
        dV(X3.2) = -25.5891 mV
        Use the `gmin_check' option to eliminate or expand this report.

DC simulation time: CPU = 1.07 ms, elapsed = 1.32895 ms.

Notice from spectre during transient analysis `TmpWL-000_TmpWL', during task `MDLControl'.
    No outputs were found. Loosening output filter criterion to `allpub'.


Opening the PSF file Cell.raw/TmpWL-000_TmpWL.tran.tran ...
Important parameter values:
    start = 0 s
    outputstart = 0 s
    stop = 2.5 ns
    step = 2.5 ps
    maxstep = 50 ps
    ic = all
    useprevic = no
    skipdc = no
    reltol = 1e-03
    abstol(V) = 1 uV
    abstol(I) = 1 pA
    temp = 27 C
    tnom = 27 C
    tempeffects = all
    errpreset = moderate
    method = traponly
    lteratio = 3.5
    relref = sigglobal
    cmin = 0 F
    gmin = 1 pS


Output and IC/nodeset summary:
                 save   13      (current)
                 save   21      (voltage)
                 ic     4       

...............9..

Notice from spectre at time = 327.5 ps during transient analysis `TmpWL-000_TmpWL', during task `MDLControl'.
    Found trapezoidal ringing on node Vdd:p.

...............9.....

Notice from spectre at time = 377.5 ps during transient analysis `TmpWL-000_TmpWL', during task `MDLControl'.
    Found trapezoidal ringing on node Vdd:p.

...............9........

Notice from spectre at time = 427.5 ps during transient analysis `TmpWL-000_TmpWL', during task `MDLControl'.
    Found trapezoidal ringing on node Vdd:p.

...............9...........

Notice from spectre at time = 477.5 ps during transient analysis `TmpWL-000_TmpWL', during task `MDLControl'.
    Found trapezoidal ringing on node Vdd:p.

...............9...............

Notice from spectre at time = 499 ps during transient analysis `TmpWL-000_TmpWL', during task `MDLControl'.
    Found trapezoidal ringing on node Vdd:p.
        Further occurrences of this notice will be suppressed.

...............9...............8...............7...............6...............5...............4...............3...............2...............1...............0
Number of accepted tran steps =             145

Notice from spectre during transient analysis `TmpWL-000_TmpWL', during task `MDLControl'.
    Trapezoidal ringing is detected during tran analysis.
        Please use method=trap for better results and performance.


Maximum value achieved for any signal of each quantity: 
V: V(X2.2) = 1.197 V
I: I(Venb:p) = 1.745 mA
If your circuit contains signals of the same quantity that are vastly different in size (such as high voltage circuitry combined with low voltage control circuitry), you should consider specifying global option `bin_relref=yes'.

~~~~~~~~~~~~~~~~~~~~~~~~~~~~~~~~~
Post-Transient Simulation Summary
~~~~~~~~~~~~~~~~~~~~~~~~~~~~~~~~~
   -   To further speed up simulation, consider
          add ++aps on command line
~~~~~~~~~~~~~~~~~~~~~~~~~~~~~~~~~


During simulation, the CPU load for active processors is :
        Spectre  0 (100.0 %)     1 (100.0 %)     2 (100.0 %)     3 (100.0 %)
        Other   
Initial condition solution time: CPU = 1.123 ms, elapsed = 1.47104 ms.
Intrinsic tran analysis time:    CPU = 33.514 ms, elapsed = 112.174 ms.
Total time required for tran analysis `TmpWL-000_TmpWL': CPU = 35.948 ms, elapsed = 116.883 ms.
Time accumulated: CPU = 327.573 ms, elapsed = 1.14168 s.
Peak resident memory used = 64.7 Mbytes.


Notice from spectre during task `MDLControl'.
    36 notices suppressed.


Value of Exported Variables in this iteration of the Search loop ( iteration = 2 ) :
Ten_Q=1
Ten_QB=6.62198e-08
Tp_wl=1.5e-09
Tp_wl1=0

+++++++++++++++
TpWl = 1.25e-09
+++++++++++++++

Warning from spectre.
    WARNING (CMI-2178): Vgnd: Terminals must not be connected together (to node `0').


************************************************************
Transient Analysis `TmpWL-000_TmpWL': time = (0 s -> 2.5 ns)
************************************************************

Notice from spectre during IC analysis, during transient analysis `TmpWL-000_TmpWL', during task `MDLControl'.
    There are 4 IC nodes defined.
Notice from spectre during IC analysis, during transient analysis `TmpWL-000_TmpWL', during task `MDLControl'.
    GminDC = 1 pS is large enough to noticeably affect the DC solution.
        dV(X3.2) = -25.5891 mV
        Use the `gmin_check' option to eliminate or expand this report.

DC simulation time: CPU = 1.08 ms, elapsed = 1.37806 ms.

Notice from spectre during transient analysis `TmpWL-000_TmpWL', during task `MDLControl'.
    No outputs were found. Loosening output filter criterion to `allpub'.


Opening the PSF file Cell.raw/TmpWL-000_TmpWL.tran.tran ...
Important parameter values:
    start = 0 s
    outputstart = 0 s
    stop = 2.5 ns
    step = 2.5 ps
    maxstep = 50 ps
    ic = all
    useprevic = no
    skipdc = no
    reltol = 1e-03
    abstol(V) = 1 uV
    abstol(I) = 1 pA
    temp = 27 C
    tnom = 27 C
    tempeffects = all
    errpreset = moderate
    method = traponly
    lteratio = 3.5
    relref = sigglobal
    cmin = 0 F
    gmin = 1 pS


Output and IC/nodeset summary:
                 save   13      (current)
                 save   21      (voltage)
                 ic     4       

...............9..

Notice from spectre at time = 327.5 ps during transient analysis `TmpWL-000_TmpWL', during task `MDLControl'.
    Found trapezoidal ringing on node Vdd:p.

...............9.....

Notice from spectre at time = 377.5 ps during transient analysis `TmpWL-000_TmpWL', during task `MDLControl'.
    Found trapezoidal ringing on node Vdd:p.

...............9........

Notice from spectre at time = 427.5 ps during transient analysis `TmpWL-000_TmpWL', during task `MDLControl'.
    Found trapezoidal ringing on node Vdd:p.

...............9...........

Notice from spectre at time = 477.5 ps during transient analysis `TmpWL-000_TmpWL', during task `MDLControl'.
    Found trapezoidal ringing on node Vdd:p.

...............9...............

Notice from spectre at time = 499 ps during transient analysis `TmpWL-000_TmpWL', during task `MDLControl'.
    Found trapezoidal ringing on node Vdd:p.
        Further occurrences of this notice will be suppressed.

...............9...............8...............7...............6...............5...............4...............3...............2...............1...............0
Number of accepted tran steps =             161

Notice from spectre during transient analysis `TmpWL-000_TmpWL', during task `MDLControl'.
    Trapezoidal ringing is detected during tran analysis.
        Please use method=trap for better results and performance.


Maximum value achieved for any signal of each quantity: 
V: V(X2.2) = 1.197 V
I: I(Venb:p) = 1.745 mA
If your circuit contains signals of the same quantity that are vastly different in size (such as high voltage circuitry combined with low voltage control circuitry), you should consider specifying global option `bin_relref=yes'.

~~~~~~~~~~~~~~~~~~~~~~~~~~~~~~~~~
Post-Transient Simulation Summary
~~~~~~~~~~~~~~~~~~~~~~~~~~~~~~~~~
   -   To further speed up simulation, consider
          add ++aps on command line
~~~~~~~~~~~~~~~~~~~~~~~~~~~~~~~~~


During simulation, the CPU load for active processors is :
        Spectre  0 (100.0 %)     1 (100.0 %)     2 (100.0 %)     3 (100.0 %)
        Other   
Initial condition solution time: CPU = 1.135 ms, elapsed = 1.50394 ms.
Intrinsic tran analysis time:    CPU = 38.097 ms, elapsed = 97.6241 ms.
Total time required for tran analysis `TmpWL-000_TmpWL': CPU = 40.631 ms, elapsed = 105.895 ms.
Time accumulated: CPU = 374.131 ms, elapsed = 1.26692 s.
Peak resident memory used = 64.8 Mbytes.


Notice from spectre during task `MDLControl'.
    31 notices suppressed.


Value of Exported Variables in this iteration of the Search loop ( iteration = 3 ) :
Ten_Q=0.0172207
Ten_QB=0.999108
Tp_wl=1.25e-09
Tp_wl1=2.5e-10

++++++++++++++++
TpWl = 1.375e-09
++++++++++++++++

Warning from spectre.
    WARNING (CMI-2178): Vgnd: Terminals must not be connected together (to node `0').


************************************************************
Transient Analysis `TmpWL-000_TmpWL': time = (0 s -> 2.5 ns)
************************************************************

Notice from spectre during IC analysis, during transient analysis `TmpWL-000_TmpWL', during task `MDLControl'.
    There are 4 IC nodes defined.
Notice from spectre during IC analysis, during transient analysis `TmpWL-000_TmpWL', during task `MDLControl'.
    GminDC = 1 pS is large enough to noticeably affect the DC solution.
        dV(X3.2) = -25.5891 mV
        Use the `gmin_check' option to eliminate or expand this report.

DC simulation time: CPU = 1.102 ms, elapsed = 1.36399 ms.

Notice from spectre during transient analysis `TmpWL-000_TmpWL', during task `MDLControl'.
    No outputs were found. Loosening output filter criterion to `allpub'.


Opening the PSF file Cell.raw/TmpWL-000_TmpWL.tran.tran ...
Important parameter values:
    start = 0 s
    outputstart = 0 s
    stop = 2.5 ns
    step = 2.5 ps
    maxstep = 50 ps
    ic = all
    useprevic = no
    skipdc = no
    reltol = 1e-03
    abstol(V) = 1 uV
    abstol(I) = 1 pA
    temp = 27 C
    tnom = 27 C
    tempeffects = all
    errpreset = moderate
    method = traponly
    lteratio = 3.5
    relref = sigglobal
    cmin = 0 F
    gmin = 1 pS


Output and IC/nodeset summary:
                 save   13      (current)
                 save   21      (voltage)
                 ic     4       

...............9..

Notice from spectre at time = 327.5 ps during transient analysis `TmpWL-000_TmpWL', during task `MDLControl'.
    Found trapezoidal ringing on node Vdd:p.

...............9.....

Notice from spectre at time = 377.5 ps during transient analysis `TmpWL-000_TmpWL', during task `MDLControl'.
    Found trapezoidal ringing on node Vdd:p.

...............9........

Notice from spectre at time = 427.5 ps during transient analysis `TmpWL-000_TmpWL', during task `MDLControl'.
    Found trapezoidal ringing on node Vdd:p.

...............9...........

Notice from spectre at time = 477.5 ps during transient analysis `TmpWL-000_TmpWL', during task `MDLControl'.
    Found trapezoidal ringing on node Vdd:p.

...............9...............

Notice from spectre at time = 499 ps during transient analysis `TmpWL-000_TmpWL', during task `MDLControl'.
    Found trapezoidal ringing on node Vdd:p.
        Further occurrences of this notice will be suppressed.

...............9...............8...............7...............6...............5...............4...............3...............2...............1...............0
Number of accepted tran steps =             156

Notice from spectre during transient analysis `TmpWL-000_TmpWL', during task `MDLControl'.
    Trapezoidal ringing is detected during tran analysis.
        Please use method=trap for better results and performance.


Maximum value achieved for any signal of each quantity: 
V: V(X2.2) = 1.197 V
I: I(Venb:p) = 1.745 mA
If your circuit contains signals of the same quantity that are vastly different in size (such as high voltage circuitry combined with low voltage control circuitry), you should consider specifying global option `bin_relref=yes'.

~~~~~~~~~~~~~~~~~~~~~~~~~~~~~~~~~
Post-Transient Simulation Summary
~~~~~~~~~~~~~~~~~~~~~~~~~~~~~~~~~
   -   To further speed up simulation, consider
          add ++aps on command line
~~~~~~~~~~~~~~~~~~~~~~~~~~~~~~~~~


During simulation, the CPU load for active processors is :
        Spectre  0 (100.0 %)     1 (100.0 %)     2 (100.0 %)     3 (100.0 %)
        Other   
Initial condition solution time: CPU = 1.152 ms, elapsed = 1.48702 ms.
Intrinsic tran analysis time:    CPU = 37.588 ms, elapsed = 112.292 ms.
Total time required for tran analysis `TmpWL-000_TmpWL': CPU = 40.395 ms, elapsed = 117.583 ms.
Time accumulated: CPU = 420.551 ms, elapsed = 1.39189 s.
Peak resident memory used = 64.8 Mbytes.


Notice from spectre during task `MDLControl'.
    34 notices suppressed.


Value of Exported Variables in this iteration of the Search loop ( iteration = 4 ) :
Ten_Q=0.192902
Ten_QB=0.811785
Tp_wl=1.375e-09
Tp_wl1=1.25e-10

+++++++++++++++++
TpWl = 1.3125e-09
+++++++++++++++++

Warning from spectre.
    WARNING (CMI-2178): Vgnd: Terminals must not be connected together (to node `0').


************************************************************
Transient Analysis `TmpWL-000_TmpWL': time = (0 s -> 2.5 ns)
************************************************************

Notice from spectre during IC analysis, during transient analysis `TmpWL-000_TmpWL', during task `MDLControl'.
    There are 4 IC nodes defined.
Notice from spectre during IC analysis, during transient analysis `TmpWL-000_TmpWL', during task `MDLControl'.
    GminDC = 1 pS is large enough to noticeably affect the DC solution.
        dV(X3.2) = -25.5891 mV
        Use the `gmin_check' option to eliminate or expand this report.

DC simulation time: CPU = 1.102 ms, elapsed = 4.03404 ms.

Notice from spectre during transient analysis `TmpWL-000_TmpWL', during task `MDLControl'.
    No outputs were found. Loosening output filter criterion to `allpub'.


Opening the PSF file Cell.raw/TmpWL-000_TmpWL.tran.tran ...
Important parameter values:
    start = 0 s
    outputstart = 0 s
    stop = 2.5 ns
    step = 2.5 ps
    maxstep = 50 ps
    ic = all
    useprevic = no
    skipdc = no
    reltol = 1e-03
    abstol(V) = 1 uV
    abstol(I) = 1 pA
    temp = 27 C
    tnom = 27 C
    tempeffects = all
    errpreset = moderate
    method = traponly
    lteratio = 3.5
    relref = sigglobal
    cmin = 0 F
    gmin = 1 pS


Output and IC/nodeset summary:
                 save   13      (current)
                 save   21      (voltage)
                 ic     4       

...............9..

Notice from spectre at time = 327.5 ps during transient analysis `TmpWL-000_TmpWL', during task `MDLControl'.
    Found trapezoidal ringing on node Vdd:p.

...............9.....

Notice from spectre at time = 377.5 ps during transient analysis `TmpWL-000_TmpWL', during task `MDLControl'.
    Found trapezoidal ringing on node Vdd:p.

...............9........

Notice from spectre at time = 427.5 ps during transient analysis `TmpWL-000_TmpWL', during task `MDLControl'.
    Found trapezoidal ringing on node Vdd:p.

...............9...........

Notice from spectre at time = 477.5 ps during transient analysis `TmpWL-000_TmpWL', during task `MDLControl'.
    Found trapezoidal ringing on node Vdd:p.

...............9...............

Notice from spectre at time = 499 ps during transient analysis `TmpWL-000_TmpWL', during task `MDLControl'.
    Found trapezoidal ringing on node Vdd:p.
        Further occurrences of this notice will be suppressed.

...............9...............8...............7...............6...............5...............4...............3...............2...............1...............0
Number of accepted tran steps =             160

Notice from spectre during transient analysis `TmpWL-000_TmpWL', during task `MDLControl'.
    Trapezoidal ringing is detected during tran analysis.
        Please use method=trap for better results and performance.


Maximum value achieved for any signal of each quantity: 
V: V(X2.2) = 1.197 V
I: I(Venb:p) = 1.745 mA
If your circuit contains signals of the same quantity that are vastly different in size (such as high voltage circuitry combined with low voltage control circuitry), you should consider specifying global option `bin_relref=yes'.

~~~~~~~~~~~~~~~~~~~~~~~~~~~~~~~~~
Post-Transient Simulation Summary
~~~~~~~~~~~~~~~~~~~~~~~~~~~~~~~~~
   -   To further speed up simulation, consider
          add ++aps on command line
~~~~~~~~~~~~~~~~~~~~~~~~~~~~~~~~~


During simulation, the CPU load for active processors is :
        Spectre  0 (100.0 %)     1 (100.0 %)     2 (100.0 %)     3 (100.0 %)
        Other   
Initial condition solution time: CPU = 1.154 ms, elapsed = 4.16112 ms.
Intrinsic tran analysis time:    CPU = 38.634 ms, elapsed = 99.18 ms.
Total time required for tran analysis `TmpWL-000_TmpWL': CPU = 41.16 ms, elapsed = 106.127 ms.
Time accumulated: CPU = 467.717 ms, elapsed = 1.50696 s.
Peak resident memory used = 64.8 Mbytes.


Notice from spectre during task `MDLControl'.
    33 notices suppressed.


Value of Exported Variables in this iteration of the Search loop ( iteration = 5 ) :
Ten_Q=0.0520366
Ten_QB=0.997763
Tp_wl=1.3125e-09
Tp_wl1=1.875e-10

++++++++++++++++++
TpWl = 1.34375e-09
++++++++++++++++++

Warning from spectre.
    WARNING (CMI-2178): Vgnd: Terminals must not be connected together (to node `0').


************************************************************
Transient Analysis `TmpWL-000_TmpWL': time = (0 s -> 2.5 ns)
************************************************************

Notice from spectre during IC analysis, during transient analysis `TmpWL-000_TmpWL', during task `MDLControl'.
    There are 4 IC nodes defined.
Notice from spectre during IC analysis, during transient analysis `TmpWL-000_TmpWL', during task `MDLControl'.
    GminDC = 1 pS is large enough to noticeably affect the DC solution.
        dV(X3.2) = -25.5891 mV
        Use the `gmin_check' option to eliminate or expand this report.

DC simulation time: CPU = 1.097 ms, elapsed = 3.43394 ms.

Notice from spectre during transient analysis `TmpWL-000_TmpWL', during task `MDLControl'.
    No outputs were found. Loosening output filter criterion to `allpub'.


Opening the PSF file Cell.raw/TmpWL-000_TmpWL.tran.tran ...
Important parameter values:
    start = 0 s
    outputstart = 0 s
    stop = 2.5 ns
    step = 2.5 ps
    maxstep = 50 ps
    ic = all
    useprevic = no
    skipdc = no
    reltol = 1e-03
    abstol(V) = 1 uV
    abstol(I) = 1 pA
    temp = 27 C
    tnom = 27 C
    tempeffects = all
    errpreset = moderate
    method = traponly
    lteratio = 3.5
    relref = sigglobal
    cmin = 0 F
    gmin = 1 pS


Output and IC/nodeset summary:
                 save   13      (current)
                 save   21      (voltage)
                 ic     4       

...............9..

Notice from spectre at time = 327.5 ps during transient analysis `TmpWL-000_TmpWL', during task `MDLControl'.
    Found trapezoidal ringing on node Vdd:p.

...............9.....

Notice from spectre at time = 377.5 ps during transient analysis `TmpWL-000_TmpWL', during task `MDLControl'.
    Found trapezoidal ringing on node Vdd:p.

...............9........

Notice from spectre at time = 427.5 ps during transient analysis `TmpWL-000_TmpWL', during task `MDLControl'.
    Found trapezoidal ringing on node Vdd:p.

...............9...........

Notice from spectre at time = 477.5 ps during transient analysis `TmpWL-000_TmpWL', during task `MDLControl'.
    Found trapezoidal ringing on node Vdd:p.

...............9...............

Notice from spectre at time = 499 ps during transient analysis `TmpWL-000_TmpWL', during task `MDLControl'.
    Found trapezoidal ringing on node Vdd:p.
        Further occurrences of this notice will be suppressed.

...............9...............8...............7...............6...............5...............4...............3...............2...............1...............0
Number of accepted tran steps =             159

Notice from spectre during transient analysis `TmpWL-000_TmpWL', during task `MDLControl'.
    Trapezoidal ringing is detected during tran analysis.
        Please use method=trap for better results and performance.


Maximum value achieved for any signal of each quantity: 
V: V(X2.2) = 1.197 V
I: I(Venb:p) = 1.745 mA
If your circuit contains signals of the same quantity that are vastly different in size (such as high voltage circuitry combined with low voltage control circuitry), you should consider specifying global option `bin_relref=yes'.

~~~~~~~~~~~~~~~~~~~~~~~~~~~~~~~~~
Post-Transient Simulation Summary
~~~~~~~~~~~~~~~~~~~~~~~~~~~~~~~~~
   -   To further speed up simulation, consider
          add ++aps on command line
~~~~~~~~~~~~~~~~~~~~~~~~~~~~~~~~~


During simulation, the CPU load for active processors is :
        Spectre  0 (100.0 %)     1 (100.0 %)     2 (100.0 %)     3 (100.0 %)
        Other   
Initial condition solution time: CPU = 1.148 ms, elapsed = 3.55601 ms.
Intrinsic tran analysis time:    CPU = 38.211 ms, elapsed = 104.427 ms.
Total time required for tran analysis `TmpWL-000_TmpWL': CPU = 40.864 ms, elapsed = 113.319 ms.
Time accumulated: CPU = 514.638 ms, elapsed = 1.6357 s.
Peak resident memory used = 64.8 Mbytes.


Notice from spectre during task `MDLControl'.
    34 notices suppressed.


Value of Exported Variables in this iteration of the Search loop ( iteration = 6 ) :
Ten_Q=0.082717
Ten_QB=0.990158
Tp_wl=1.34375e-09
Tp_wl1=1.5625e-10

++++++++++++++++++
TpWl = 1.35937e-09
++++++++++++++++++

Warning from spectre.
    WARNING (CMI-2178): Vgnd: Terminals must not be connected together (to node `0').


************************************************************
Transient Analysis `TmpWL-000_TmpWL': time = (0 s -> 2.5 ns)
************************************************************

Notice from spectre during IC analysis, during transient analysis `TmpWL-000_TmpWL', during task `MDLControl'.
    There are 4 IC nodes defined.
Notice from spectre during IC analysis, during transient analysis `TmpWL-000_TmpWL', during task `MDLControl'.
    GminDC = 1 pS is large enough to noticeably affect the DC solution.
        dV(X3.2) = -25.5891 mV
        Use the `gmin_check' option to eliminate or expand this report.

DC simulation time: CPU = 1.064 ms, elapsed = 1.33705 ms.

Notice from spectre during transient analysis `TmpWL-000_TmpWL', during task `MDLControl'.
    No outputs were found. Loosening output filter criterion to `allpub'.


Opening the PSF file Cell.raw/TmpWL-000_TmpWL.tran.tran ...
Important parameter values:
    start = 0 s
    outputstart = 0 s
    stop = 2.5 ns
    step = 2.5 ps
    maxstep = 50 ps
    ic = all
    useprevic = no
    skipdc = no
    reltol = 1e-03
    abstol(V) = 1 uV
    abstol(I) = 1 pA
    temp = 27 C
    tnom = 27 C
    tempeffects = all
    errpreset = moderate
    method = traponly
    lteratio = 3.5
    relref = sigglobal
    cmin = 0 F
    gmin = 1 pS


Output and IC/nodeset summary:
                 save   13      (current)
                 save   21      (voltage)
                 ic     4       

...............9..

Notice from spectre at time = 327.5 ps during transient analysis `TmpWL-000_TmpWL', during task `MDLControl'.
    Found trapezoidal ringing on node Vdd:p.

...............9.....

Notice from spectre at time = 377.5 ps during transient analysis `TmpWL-000_TmpWL', during task `MDLControl'.
    Found trapezoidal ringing on node Vdd:p.

...............9........

Notice from spectre at time = 427.5 ps during transient analysis `TmpWL-000_TmpWL', during task `MDLControl'.
    Found trapezoidal ringing on node Vdd:p.

...............9...........

Notice from spectre at time = 477.5 ps during transient analysis `TmpWL-000_TmpWL', during task `MDLControl'.
    Found trapezoidal ringing on node Vdd:p.

...............9...............

Notice from spectre at time = 499 ps during transient analysis `TmpWL-000_TmpWL', during task `MDLControl'.
    Found trapezoidal ringing on node Vdd:p.
        Further occurrences of this notice will be suppressed.

...............9...............8...............7...............6...............5...............4...............3...............2...............1...............0
Number of accepted tran steps =             157

Notice from spectre during transient analysis `TmpWL-000_TmpWL', during task `MDLControl'.
    Trapezoidal ringing is detected during tran analysis.
        Please use method=trap for better results and performance.


Maximum value achieved for any signal of each quantity: 
V: V(X2.2) = 1.197 V
I: I(Venb:p) = 1.745 mA
If your circuit contains signals of the same quantity that are vastly different in size (such as high voltage circuitry combined with low voltage control circuitry), you should consider specifying global option `bin_relref=yes'.

~~~~~~~~~~~~~~~~~~~~~~~~~~~~~~~~~
Post-Transient Simulation Summary
~~~~~~~~~~~~~~~~~~~~~~~~~~~~~~~~~
   -   To further speed up simulation, consider
          add ++aps on command line
~~~~~~~~~~~~~~~~~~~~~~~~~~~~~~~~~


During simulation, the CPU load for active processors is :
        Spectre  0 (100.0 %)     1 (100.0 %)     2 (100.0 %)     3 (100.0 %)
        Other   
Initial condition solution time: CPU = 1.112 ms, elapsed = 1.45602 ms.
Intrinsic tran analysis time:    CPU = 37.479 ms, elapsed = 109.084 ms.
Total time required for tran analysis `TmpWL-000_TmpWL': CPU = 39.925 ms, elapsed = 113.291 ms.
Time accumulated: CPU = 560.462 ms, elapsed = 1.75578 s.
Peak resident memory used = 64.8 Mbytes.


Notice from spectre during task `MDLControl'.
    33 notices suppressed.


Value of Exported Variables in this iteration of the Search loop ( iteration = 7 ) :
Ten_Q=0.111274
Ten_QB=0.949378
Tp_wl=1.35937e-09
Tp_wl1=1.40625e-10

++++++++++++++++++
TpWl = 1.35156e-09
++++++++++++++++++

Warning from spectre.
    WARNING (CMI-2178): Vgnd: Terminals must not be connected together (to node `0').


************************************************************
Transient Analysis `TmpWL-000_TmpWL': time = (0 s -> 2.5 ns)
************************************************************

Notice from spectre during IC analysis, during transient analysis `TmpWL-000_TmpWL', during task `MDLControl'.
    There are 4 IC nodes defined.
Notice from spectre during IC analysis, during transient analysis `TmpWL-000_TmpWL', during task `MDLControl'.
    GminDC = 1 pS is large enough to noticeably affect the DC solution.
        dV(X3.2) = -25.5891 mV
        Use the `gmin_check' option to eliminate or expand this report.

DC simulation time: CPU = 1.062 ms, elapsed = 1.32012 ms.

Notice from spectre during transient analysis `TmpWL-000_TmpWL', during task `MDLControl'.
    No outputs were found. Loosening output filter criterion to `allpub'.


Opening the PSF file Cell.raw/TmpWL-000_TmpWL.tran.tran ...
Important parameter values:
    start = 0 s
    outputstart = 0 s
    stop = 2.5 ns
    step = 2.5 ps
    maxstep = 50 ps
    ic = all
    useprevic = no
    skipdc = no
    reltol = 1e-03
    abstol(V) = 1 uV
    abstol(I) = 1 pA
    temp = 27 C
    tnom = 27 C
    tempeffects = all
    errpreset = moderate
    method = traponly
    lteratio = 3.5
    relref = sigglobal
    cmin = 0 F
    gmin = 1 pS


Output and IC/nodeset summary:
                 save   13      (current)
                 save   21      (voltage)
                 ic     4       

...............9..

Notice from spectre at time = 327.5 ps during transient analysis `TmpWL-000_TmpWL', during task `MDLControl'.
    Found trapezoidal ringing on node Vdd:p.

...............9.....

Notice from spectre at time = 377.5 ps during transient analysis `TmpWL-000_TmpWL', during task `MDLControl'.
    Found trapezoidal ringing on node Vdd:p.

...............9........

Notice from spectre at time = 427.5 ps during transient analysis `TmpWL-000_TmpWL', during task `MDLControl'.
    Found trapezoidal ringing on node Vdd:p.

...............9...........

Notice from spectre at time = 477.5 ps during transient analysis `TmpWL-000_TmpWL', during task `MDLControl'.
    Found trapezoidal ringing on node Vdd:p.

...............9...............

Notice from spectre at time = 499 ps during transient analysis `TmpWL-000_TmpWL', during task `MDLControl'.
    Found trapezoidal ringing on node Vdd:p.
        Further occurrences of this notice will be suppressed.

...............9...............8...............7...............6...............5...............4...............3...............2...............1...............0
Number of accepted tran steps =             158

Notice from spectre during transient analysis `TmpWL-000_TmpWL', during task `MDLControl'.
    Trapezoidal ringing is detected during tran analysis.
        Please use method=trap for better results and performance.


Maximum value achieved for any signal of each quantity: 
V: V(X2.2) = 1.197 V
I: I(Venb:p) = 1.745 mA
If your circuit contains signals of the same quantity that are vastly different in size (such as high voltage circuitry combined with low voltage control circuitry), you should consider specifying global option `bin_relref=yes'.

~~~~~~~~~~~~~~~~~~~~~~~~~~~~~~~~~
Post-Transient Simulation Summary
~~~~~~~~~~~~~~~~~~~~~~~~~~~~~~~~~
   -   To further speed up simulation, consider
          add ++aps on command line
~~~~~~~~~~~~~~~~~~~~~~~~~~~~~~~~~


During simulation, the CPU load for active processors is :
        Spectre  0 (100.0 %)     1 (100.0 %)     2 (100.0 %)     3 (100.0 %)
        Other   
Initial condition solution time: CPU = 1.115 ms, elapsed = 1.46985 ms.
Intrinsic tran analysis time:    CPU = 38.292 ms, elapsed = 105.142 ms.
Total time required for tran analysis `TmpWL-000_TmpWL': CPU = 40.804 ms, elapsed = 117.427 ms.
Time accumulated: CPU = 607.136 ms, elapsed = 1.88248 s.
Peak resident memory used = 64.8 Mbytes.


Notice from spectre during task `MDLControl'.
    33 notices suppressed.


Value of Exported Variables in this iteration of the Search loop ( iteration = 8 ) :
Ten_Q=0.0936963
Ten_QB=0.978985
Tp_wl=1.35156e-09
Tp_wl1=1.48438e-10

++++++++++++++++++
TpWl = 1.35547e-09
++++++++++++++++++

Warning from spectre.
    WARNING (CMI-2178): Vgnd: Terminals must not be connected together (to node `0').


************************************************************
Transient Analysis `TmpWL-000_TmpWL': time = (0 s -> 2.5 ns)
************************************************************

Notice from spectre during IC analysis, during transient analysis `TmpWL-000_TmpWL', during task `MDLControl'.
    There are 4 IC nodes defined.
Notice from spectre during IC analysis, during transient analysis `TmpWL-000_TmpWL', during task `MDLControl'.
    GminDC = 1 pS is large enough to noticeably affect the DC solution.
        dV(X3.2) = -25.5891 mV
        Use the `gmin_check' option to eliminate or expand this report.

DC simulation time: CPU = 1.321 ms, elapsed = 1.61886 ms.

Notice from spectre during transient analysis `TmpWL-000_TmpWL', during task `MDLControl'.
    No outputs were found. Loosening output filter criterion to `allpub'.


Opening the PSF file Cell.raw/TmpWL-000_TmpWL.tran.tran ...
Important parameter values:
    start = 0 s
    outputstart = 0 s
    stop = 2.5 ns
    step = 2.5 ps
    maxstep = 50 ps
    ic = all
    useprevic = no
    skipdc = no
    reltol = 1e-03
    abstol(V) = 1 uV
    abstol(I) = 1 pA
    temp = 27 C
    tnom = 27 C
    tempeffects = all
    errpreset = moderate
    method = traponly
    lteratio = 3.5
    relref = sigglobal
    cmin = 0 F
    gmin = 1 pS


Output and IC/nodeset summary:
                 save   13      (current)
                 save   21      (voltage)
                 ic     4       

...............9..

Notice from spectre at time = 327.5 ps during transient analysis `TmpWL-000_TmpWL', during task `MDLControl'.
    Found trapezoidal ringing on node Vdd:p.

...............9.....

Notice from spectre at time = 377.5 ps during transient analysis `TmpWL-000_TmpWL', during task `MDLControl'.
    Found trapezoidal ringing on node Vdd:p.

...............9........

Notice from spectre at time = 427.5 ps during transient analysis `TmpWL-000_TmpWL', during task `MDLControl'.
    Found trapezoidal ringing on node Vdd:p.

...............9...........

Notice from spectre at time = 477.5 ps during transient analysis `TmpWL-000_TmpWL', during task `MDLControl'.
    Found trapezoidal ringing on node Vdd:p.

...............9...............

Notice from spectre at time = 499 ps during transient analysis `TmpWL-000_TmpWL', during task `MDLControl'.
    Found trapezoidal ringing on node Vdd:p.
        Further occurrences of this notice will be suppressed.

...............9...............8...............7...............6...............5...............4...............3...............2...............1...............0
Number of accepted tran steps =             158

Notice from spectre during transient analysis `TmpWL-000_TmpWL', during task `MDLControl'.
    Trapezoidal ringing is detected during tran analysis.
        Please use method=trap for better results and performance.


Maximum value achieved for any signal of each quantity: 
V: V(X2.2) = 1.197 V
I: I(Venb:p) = 1.745 mA
If your circuit contains signals of the same quantity that are vastly different in size (such as high voltage circuitry combined with low voltage control circuitry), you should consider specifying global option `bin_relref=yes'.

~~~~~~~~~~~~~~~~~~~~~~~~~~~~~~~~~
Post-Transient Simulation Summary
~~~~~~~~~~~~~~~~~~~~~~~~~~~~~~~~~
   -   To further speed up simulation, consider
          add ++aps on command line
~~~~~~~~~~~~~~~~~~~~~~~~~~~~~~~~~


During simulation, the CPU load for active processors is :
        Spectre  0 (100.0 %)     1 (100.0 %)     2 (100.0 %)     3 (100.0 %)
        Other   
Initial condition solution time: CPU = 1.386 ms, elapsed = 1.7581 ms.
Intrinsic tran analysis time:    CPU = 37.337 ms, elapsed = 112.311 ms.
Total time required for tran analysis `TmpWL-000_TmpWL': CPU = 40.327 ms, elapsed = 125.206 ms.
Time accumulated: CPU = 653.276 ms, elapsed = 2.01865 s.
Peak resident memory used = 64.8 Mbytes.


Notice from spectre during task `MDLControl'.
    34 notices suppressed.


Value of Exported Variables in this iteration of the Search loop ( iteration = 9 ) :
Ten_Q=0.102488
Ten_QB=0.964175
Tp_wl=1.35547e-09
Tp_wl1=1.44531e-10

++++++++++++++++++
TpWl = 1.35352e-09
++++++++++++++++++

Warning from spectre.
    WARNING (CMI-2178): Vgnd: Terminals must not be connected together (to node `0').


************************************************************
Transient Analysis `TmpWL-000_TmpWL': time = (0 s -> 2.5 ns)
************************************************************

Notice from spectre during IC analysis, during transient analysis `TmpWL-000_TmpWL', during task `MDLControl'.
    There are 4 IC nodes defined.
Notice from spectre during IC analysis, during transient analysis `TmpWL-000_TmpWL', during task `MDLControl'.
    GminDC = 1 pS is large enough to noticeably affect the DC solution.
        dV(X3.2) = -25.5891 mV
        Use the `gmin_check' option to eliminate or expand this report.

DC simulation time: CPU = 1.053 ms, elapsed = 1.31106 ms.

Notice from spectre during transient analysis `TmpWL-000_TmpWL', during task `MDLControl'.
    No outputs were found. Loosening output filter criterion to `allpub'.


Opening the PSF file Cell.raw/TmpWL-000_TmpWL.tran.tran ...
Important parameter values:
    start = 0 s
    outputstart = 0 s
    stop = 2.5 ns
    step = 2.5 ps
    maxstep = 50 ps
    ic = all
    useprevic = no
    skipdc = no
    reltol = 1e-03
    abstol(V) = 1 uV
    abstol(I) = 1 pA
    temp = 27 C
    tnom = 27 C
    tempeffects = all
    errpreset = moderate
    method = traponly
    lteratio = 3.5
    relref = sigglobal
    cmin = 0 F
    gmin = 1 pS


Output and IC/nodeset summary:
                 save   13      (current)
                 save   21      (voltage)
                 ic     4       

...............9..

Notice from spectre at time = 327.5 ps during transient analysis `TmpWL-000_TmpWL', during task `MDLControl'.
    Found trapezoidal ringing on node Vdd:p.

...............9.....

Notice from spectre at time = 377.5 ps during transient analysis `TmpWL-000_TmpWL', during task `MDLControl'.
    Found trapezoidal ringing on node Vdd:p.

...............9........

Notice from spectre at time = 427.5 ps during transient analysis `TmpWL-000_TmpWL', during task `MDLControl'.
    Found trapezoidal ringing on node Vdd:p.

...............9...........

Notice from spectre at time = 477.5 ps during transient analysis `TmpWL-000_TmpWL', during task `MDLControl'.
    Found trapezoidal ringing on node Vdd:p.

...............9...............

Notice from spectre at time = 499 ps during transient analysis `TmpWL-000_TmpWL', during task `MDLControl'.
    Found trapezoidal ringing on node Vdd:p.
        Further occurrences of this notice will be suppressed.

...............9...............8...............7...............6...............5...............4...............3...............2...............1...............0
Number of accepted tran steps =             158

Notice from spectre during transient analysis `TmpWL-000_TmpWL', during task `MDLControl'.
    Trapezoidal ringing is detected during tran analysis.
        Please use method=trap for better results and performance.


Maximum value achieved for any signal of each quantity: 
V: V(X2.2) = 1.197 V
I: I(Venb:p) = 1.745 mA
If your circuit contains signals of the same quantity that are vastly different in size (such as high voltage circuitry combined with low voltage control circuitry), you should consider specifying global option `bin_relref=yes'.

~~~~~~~~~~~~~~~~~~~~~~~~~~~~~~~~~
Post-Transient Simulation Summary
~~~~~~~~~~~~~~~~~~~~~~~~~~~~~~~~~
   -   To further speed up simulation, consider
          add ++aps on command line
~~~~~~~~~~~~~~~~~~~~~~~~~~~~~~~~~


During simulation, the CPU load for active processors is :
        Spectre  0 (100.0 %)     1 (100.0 %)     2 (100.0 %)     3 (100.0 %)
        Other   
Initial condition solution time: CPU = 1.101 ms, elapsed = 1.43099 ms.
Intrinsic tran analysis time:    CPU = 37.997 ms, elapsed = 96.1452 ms.
Total time required for tran analysis `TmpWL-000_TmpWL': CPU = 40.415 ms, elapsed = 110.007 ms.
Time accumulated: CPU = 699.735 ms, elapsed = 2.14702 s.
Peak resident memory used = 64.8 Mbytes.


Notice from spectre during task `MDLControl'.
    34 notices suppressed.


Value of Exported Variables in this iteration of the Search loop ( iteration = 10 ) :
Ten_Q=0.0980919
Ten_QB=0.97158
Tp_wl=1.35352e-09
Tp_wl1=1.46484e-10

++++++++++++++++++
TpWl = 1.35449e-09
++++++++++++++++++

Warning from spectre.
    WARNING (CMI-2178): Vgnd: Terminals must not be connected together (to node `0').


************************************************************
Transient Analysis `TmpWL-000_TmpWL': time = (0 s -> 2.5 ns)
************************************************************

Notice from spectre during IC analysis, during transient analysis `TmpWL-000_TmpWL', during task `MDLControl'.
    There are 4 IC nodes defined.
Notice from spectre during IC analysis, during transient analysis `TmpWL-000_TmpWL', during task `MDLControl'.
    GminDC = 1 pS is large enough to noticeably affect the DC solution.
        dV(X3.2) = -25.5891 mV
        Use the `gmin_check' option to eliminate or expand this report.

DC simulation time: CPU = 1.073 ms, elapsed = 1.40405 ms.

Notice from spectre during transient analysis `TmpWL-000_TmpWL', during task `MDLControl'.
    No outputs were found. Loosening output filter criterion to `allpub'.


Opening the PSF file Cell.raw/TmpWL-000_TmpWL.tran.tran ...
Important parameter values:
    start = 0 s
    outputstart = 0 s
    stop = 2.5 ns
    step = 2.5 ps
    maxstep = 50 ps
    ic = all
    useprevic = no
    skipdc = no
    reltol = 1e-03
    abstol(V) = 1 uV
    abstol(I) = 1 pA
    temp = 27 C
    tnom = 27 C
    tempeffects = all
    errpreset = moderate
    method = traponly
    lteratio = 3.5
    relref = sigglobal
    cmin = 0 F
    gmin = 1 pS


Output and IC/nodeset summary:
                 save   13      (current)
                 save   21      (voltage)
                 ic     4       

...............9..

Notice from spectre at time = 327.5 ps during transient analysis `TmpWL-000_TmpWL', during task `MDLControl'.
    Found trapezoidal ringing on node Vdd:p.

...............9.....

Notice from spectre at time = 377.5 ps during transient analysis `TmpWL-000_TmpWL', during task `MDLControl'.
    Found trapezoidal ringing on node Vdd:p.

...............9........

Notice from spectre at time = 427.5 ps during transient analysis `TmpWL-000_TmpWL', during task `MDLControl'.
    Found trapezoidal ringing on node Vdd:p.

...............9...........

Notice from spectre at time = 477.5 ps during transient analysis `TmpWL-000_TmpWL', during task `MDLControl'.
    Found trapezoidal ringing on node Vdd:p.

...............9...............

Notice from spectre at time = 499 ps during transient analysis `TmpWL-000_TmpWL', during task `MDLControl'.
    Found trapezoidal ringing on node Vdd:p.
        Further occurrences of this notice will be suppressed.

...............9...............8...............7...............6...............5...............4...............3...............2...............1...............0
Number of accepted tran steps =             158

Notice from spectre during transient analysis `TmpWL-000_TmpWL', during task `MDLControl'.
    Trapezoidal ringing is detected during tran analysis.
        Please use method=trap for better results and performance.


Maximum value achieved for any signal of each quantity: 
V: V(X2.2) = 1.197 V
I: I(Venb:p) = 1.745 mA
If your circuit contains signals of the same quantity that are vastly different in size (such as high voltage circuitry combined with low voltage control circuitry), you should consider specifying global option `bin_relref=yes'.

~~~~~~~~~~~~~~~~~~~~~~~~~~~~~~~~~
Post-Transient Simulation Summary
~~~~~~~~~~~~~~~~~~~~~~~~~~~~~~~~~
   -   To further speed up simulation, consider
          add ++aps on command line
~~~~~~~~~~~~~~~~~~~~~~~~~~~~~~~~~


During simulation, the CPU load for active processors is :
        Spectre  0 (100.0 %)     1 (100.0 %)     2 (100.0 %)     3 (100.0 %)
        Other   
Initial condition solution time: CPU = 1.123 ms, elapsed = 1.52516 ms.
Intrinsic tran analysis time:    CPU = 37.794 ms, elapsed = 108.629 ms.
Total time required for tran analysis `TmpWL-000_TmpWL': CPU = 40.26 ms, elapsed = 112.919 ms.
Time accumulated: CPU = 745.982 ms, elapsed = 2.27587 s.
Peak resident memory used = 64.8 Mbytes.


Notice from spectre during task `MDLControl'.
    34 notices suppressed.


Value of Exported Variables in this iteration of the Search loop ( iteration = 11 ) :
Ten_Q=0.10029
Ten_QB=0.967878
Tp_wl=1.35449e-09
Tp_wl1=1.45508e-10

Warning from spectre.
    WARNING (CMI-2178): Vgnd: Terminals must not be connected together (to node `0').


++++++++++++++++++++++++++++++++++++++++++
Optimization completed. TpWl = 1.35352e-09
++++++++++++++++++++++++++++++++++++++++++

************************************************************
Transient Analysis `TmpWL-000_TmpWL': time = (0 s -> 2.5 ns)
************************************************************

Notice from spectre during IC analysis, during transient analysis `TmpWL-000_TmpWL', during task `MDLControl'.
    There are 4 IC nodes defined.
Notice from spectre during IC analysis, during transient analysis `TmpWL-000_TmpWL', during task `MDLControl'.
    GminDC = 1 pS is large enough to noticeably affect the DC solution.
        dV(X3.2) = -25.5891 mV
        Use the `gmin_check' option to eliminate or expand this report.

DC simulation time: CPU = 1.052 ms, elapsed = 1.32108 ms.

Notice from spectre during transient analysis `TmpWL-000_TmpWL', during task `MDLControl'.
    No outputs were found. Loosening output filter criterion to `allpub'.


Opening the PSF file Cell.raw/TmpWL-000_TmpWL.tran.tran ...
Important parameter values:
    start = 0 s
    outputstart = 0 s
    stop = 2.5 ns
    step = 2.5 ps
    maxstep = 50 ps
    ic = all
    useprevic = no
    skipdc = no
    reltol = 1e-03
    abstol(V) = 1 uV
    abstol(I) = 1 pA
    temp = 27 C
    tnom = 27 C
    tempeffects = all
    errpreset = moderate
    method = traponly
    lteratio = 3.5
    relref = sigglobal
    cmin = 0 F
    gmin = 1 pS


Output and IC/nodeset summary:
                 save   13      (current)
                 save   21      (voltage)
                 ic     4       

...............9..

Notice from spectre at time = 327.5 ps during transient analysis `TmpWL-000_TmpWL', during task `MDLControl'.
    Found trapezoidal ringing on node Vdd:p.

...............9.....

Notice from spectre at time = 377.5 ps during transient analysis `TmpWL-000_TmpWL', during task `MDLControl'.
    Found trapezoidal ringing on node Vdd:p.

...............9........

Notice from spectre at time = 427.5 ps during transient analysis `TmpWL-000_TmpWL', during task `MDLControl'.
    Found trapezoidal ringing on node Vdd:p.

...............9...........

Notice from spectre at time = 477.5 ps during transient analysis `TmpWL-000_TmpWL', during task `MDLControl'.
    Found trapezoidal ringing on node Vdd:p.

...............9...............

Notice from spectre at time = 499 ps during transient analysis `TmpWL-000_TmpWL', during task `MDLControl'.
    Found trapezoidal ringing on node Vdd:p.
        Further occurrences of this notice will be suppressed.

...............9...............8...............7...............6...............5...............4...............3...............2...............1...............0
Number of accepted tran steps =             158

Notice from spectre during transient analysis `TmpWL-000_TmpWL', during task `MDLControl'.
    Trapezoidal ringing is detected during tran analysis.
        Please use method=trap for better results and performance.


Maximum value achieved for any signal of each quantity: 
V: V(X2.2) = 1.197 V
I: I(Venb:p) = 1.745 mA
If your circuit contains signals of the same quantity that are vastly different in size (such as high voltage circuitry combined with low voltage control circuitry), you should consider specifying global option `bin_relref=yes'.

~~~~~~~~~~~~~~~~~~~~~~~~~~~~~~~~~
Post-Transient Simulation Summary
~~~~~~~~~~~~~~~~~~~~~~~~~~~~~~~~~
   -   To further speed up simulation, consider
          add ++aps on command line
~~~~~~~~~~~~~~~~~~~~~~~~~~~~~~~~~


During simulation, the CPU load for active processors is :
        Spectre  0 (100.0 %)     1 (100.0 %)     2 (100.0 %)     3 (100.0 %)
        Other   
Initial condition solution time: CPU = 1.102 ms, elapsed = 1.44196 ms.
Intrinsic tran analysis time:    CPU = 37.099 ms, elapsed = 72.547 ms.
Total time required for tran analysis `TmpWL-000_TmpWL': CPU = 39.505 ms, elapsed = 76.6861 ms.
Time accumulated: CPU = 791.456 ms, elapsed = 2.35947 s.
Peak resident memory used = 64.8 Mbytes.


Notice from spectre during task `MDLControl'.
    34 notices suppressed.


Aggregate audit (1:19:07 PM, Fri May 1, 2020):
Time used: CPU = 795 ms, elapsed = 2.43 s, util. = 32.7%.
Time spent in licensing: elapsed = 20.6 ms.
Peak memory used = 65.3 Mbytes.
Simulation started at: 1:19:04 PM, Fri May 1, 2020, ended at: 1:19:07 PM, Fri May 1, 2020, with elapsed time (wall clock): 2.43 s.
spectre completes with 0 errors, 17 warnings, and 122 notices.
