
Spectre (R) Circuit Simulator
Version 16.1.0.673.isr14 64bit -- 30 Mar 2018
Copyright (C) 1989-2018 Cadence Design Systems, Inc. All rights reserved worldwide. Cadence and Spectre are registered trademarks of Cadence Design Systems, Inc. All others are the property of their respective holders.

Includes RSA BSAFE(R) Cryptographic or Security Protocol Software from RSA Security, Inc.

User: brunozimmer   Host: itacolomi.lapsi   HostID: 7F0100   PID: 7378
Memory  available: 1.0709 GB  physical: 33.7038 GB
Linux   : CentOS Linux release 7.6.1810 (Core) 
CPU Type: Intel(R) Xeon(R) CPU E3-1220 V2 @ 3.10GHz
All processors running at 3077.3 MHz
        Socket: Processors
        0:       0,  1,  2,  3
        
System load averages (1min, 5min, 15min) : 9.2 %, 8.2 %, 9.2 %


Simulating `Cell.scs' on itacolomi.lapsi at 4:40:04 PM, Mon Apr 20, 2020 (process id: 7378).
Current working directory: /home/brunozimmer/Documentos/Netlist_OneCellMem/Efficiency_Test
Command line:
    /tools/cadence/SPECTRE161/tools.lnx86/bin/spectre -64 =mdl  \
        Efficiency.mdl Cell.scs

Loading /tools/cadence/SPECTRE161/tools.lnx86/cmi/lib/64bit/5.0/libinfineon_sh.so ...
Loading /tools/cadence/SPECTRE161/tools.lnx86/cmi/lib/64bit/5.0/libphilips_o_sh.so ...
Loading /tools/cadence/SPECTRE161/tools.lnx86/cmi/lib/64bit/5.0/libphilips_sh.so ...
Loading /tools/cadence/SPECTRE161/tools.lnx86/cmi/lib/64bit/5.0/libsparam_sh.so ...
Loading /tools/cadence/SPECTRE161/tools.lnx86/cmi/lib/64bit/5.0/libstmodels_sh.so ...
Loading /tools/cadence/SPECTRE161/tools.lnx86/spectre/lib/64bit/mdl/libSpectreEH_sh.so ...

Warning from spectre.
    WARNING (MDL-1452): line 1, column 1: syntax error before or at: *
            unrecognised statement.

Reading file:  /home/brunozimmer/Documentos/Netlist_OneCellMem/Efficiency_Test/Cell.scs
Reading file:  /tools/cadence/SPECTRE161/tools.lnx86/spectre/etc/configs/mapsubckt.cfg
Reading file:  /tools/cadence/SPECTRE161/tools.lnx86/spectre/etc/configs/spectre.cfg
Reading file:  /home/brunozimmer/Documentos/Netlist_OneCellMem/Efficiency_Test/TRISTATE.spi
Reading file:  /home/brunozimmer/Documentos/Netlist_OneCellMem/Efficiency_Test/45nm_LP.pm
Reading file:  /home/brunozimmer/Documentos/Netlist_OneCellMem/Efficiency_Test/INV.spi
Reading file:  /home/brunozimmer/Documentos/Netlist_OneCellMem/Efficiency_Test/PassTransistor.spi
Time for NDB Parsing: CPU = 189.277 ms, elapsed = 198.764 ms.
Time accumulated: CPU = 209.879 ms, elapsed = 198.771 ms.
Peak resident memory used = 53 Mbytes.


Warning from spectre during circuit read-in.
    WARNING (SFE-397): A primitive with name NMOS_VTL already exist, will override.
    WARNING (SFE-397): A primitive with name PMOS_VTL already exist, will override.
    WARNING (SFE-397): A primitive with name NMOS_VTL already exist, will override.
    WARNING (SFE-397): A primitive with name PMOS_VTL already exist, will override.
    WARNING (SFE-397): A primitive with name NMOS_VTL already exist, will override.
        Further occurrences of this warning will be suppressed.

Reading link:  /tools/cadence/SPECTRE161/tools.lnx86/spectre/etc/ahdl/discipline.h
Reading file:  /tools/cadence/SPECTRE161/tools.lnx86/spectre/etc/ahdl/disciplines.vams
Reading link:  /tools/cadence/SPECTRE161/tools.lnx86/spectre/etc/ahdl/constants.h
Reading file:  /tools/cadence/SPECTRE161/tools.lnx86/spectre/etc/ahdl/constants.vams
Time for Elaboration: CPU = 17.316 ms, elapsed = 18.714 ms.
Time accumulated: CPU = 227.328 ms, elapsed = 217.631 ms.
Peak resident memory used = 59.8 Mbytes.


Time for EDB Visiting: CPU = 849 us, elapsed = 853.062 us.
Time accumulated: CPU = 228.303 ms, elapsed = 218.623 ms.
Peak resident memory used = 60.4 Mbytes.


Notice from spectre during topology check.
    Only one connection to the following 3 nodes:
        Vdd1
        Vdd2
        Vdd3


Global user options:
             rawfmt = psfbin

Scoped user options:

Circuit inventory:
              nodes 24
              bsim4 17    
            vsource 17    

Analysis and control statement inventory:
               tran 1     

Output statements:
             .probe 0     
           .measure 0     
               save 0     


Notice from spectre.
    1 warning suppressed.

Time for parsing: CPU = 2.386 ms, elapsed = 57.6959 ms.
Time accumulated: CPU = 230.793 ms, elapsed = 276.437 ms.
Peak resident memory used = 61.9 Mbytes.

~~~~~~~~~~~~~~~~~~~~~~
Pre-Simulation Summary
~~~~~~~~~~~~~~~~~~~~~~
~~~~~~~~~~~~~~~~~~~~~~

Warning from spectre.
    WARNING (CMI-2178): Vgnd: Terminals must not be connected together (to node `0').


++++++++++++++++++++
Tpread = (2.099999n)
++++++++++++++++++++

Warning from spectre.
    WARNING (CMI-2178): Vgnd: Terminals must not be connected together (to node `0').


******************************************************************
Transient Analysis `PulsoRead-000_PulsoRead': time = (0 s -> 3 ns)
******************************************************************

Notice from spectre during IC analysis, during transient analysis `PulsoRead-000_PulsoRead', during task `MDLControl'.
    GminDC = 1 pS is large enough to noticeably affect the DC solution.
        dV(BL) = 110.544 mV
        Use the `gmin_check' option to eliminate or expand this report.

DC simulation time: CPU = 1.829 ms, elapsed = 1.8611 ms.

Notice from spectre during transient analysis `PulsoRead-000_PulsoRead', during task `MDLControl'.
    No outputs were found. Loosening output filter criterion to `allpub'.


Opening the PSF file Cell.raw/PulsoRead-000_PulsoRead.tran.tran ...
Important parameter values:
    start = 0 s
    outputstart = 0 s
    stop = 3 ns
    step = 3 ps
    maxstep = 60 ps
    ic = all
    useprevic = no
    skipdc = no
    reltol = 1e-03
    abstol(V) = 1 uV
    abstol(I) = 1 pA
    temp = 27 C
    tnom = 27 C
    tempeffects = all
    errpreset = moderate
    method = traponly
    lteratio = 3.5
    relref = sigglobal
    cmin = 0 F
    gmin = 1 pS


Output and IC/nodeset summary:
                 save   16      (current)
                 save   24      (voltage)

...............9...............8.............

Notice from spectre at time = 912.76 ps during transient analysis `PulsoRead-000_PulsoRead', during task `MDLControl'.
    Found trapezoidal ringing on node X2.M_i_0:int_b.

...............9...............8...............7.

Notice from spectre at time = 972.76 ps during transient analysis `PulsoRead-000_PulsoRead', during task `MDLControl'.
    Found trapezoidal ringing on node X2.M_i_0:int_b.

...............9...............8...............7....

Notice from spectre at time = 999.999 ps during transient analysis `PulsoRead-000_PulsoRead', during task `MDLControl'.
    Found trapezoidal ringing on node X2.M_i_0:int_b.

...............9...............8...............7............

Notice from spectre at time = 1.18786 ns during transient analysis `PulsoRead-000_PulsoRead', during task `MDLControl'.
    Found trapezoidal ringing on node Vdd:p.

...............9...............8...............7...............

Notice from spectre at time = 1.2 ns during transient analysis `PulsoRead-000_PulsoRead', during task `MDLControl'.
    Found trapezoidal ringing on node Vdd:p.
        Further occurrences of this notice will be suppressed.

...............9...............8...............7...............6...............5...............4...............3...............2...............1...............0
Number of accepted tran steps =             368

Notice from spectre during transient analysis `PulsoRead-000_PulsoRead', during task `MDLControl'.
    Trapezoidal ringing is detected during tran analysis.
        Please use method=trap for better results and performance.


Maximum value achieved for any signal of each quantity: 
V: V(X3.2) = 1.338 V
I: I(Vpre:p) = 937.9 mA
If your circuit contains signals of the same quantity that are vastly different in size (such as high voltage circuitry combined with low voltage control circuitry), you should consider specifying global option `bin_relref=yes'.

~~~~~~~~~~~~~~~~~~~~~~~~~~~~~~~~~
Post-Transient Simulation Summary
~~~~~~~~~~~~~~~~~~~~~~~~~~~~~~~~~
   -   To further speed up simulation, consider
          add ++aps on command line
~~~~~~~~~~~~~~~~~~~~~~~~~~~~~~~~~


During simulation, the CPU load for active processors is :
        Spectre  0 (16.7 %)      1 (34.7 %)      2 (27.1 %)      3 (18.0 %)
        Other   
Initial condition solution time: CPU = 1.898 ms, elapsed = 1.94001 ms.
Intrinsic tran analysis time:    CPU = 107.4 ms, elapsed = 135.463 ms.
Total time required for tran analysis `PulsoRead-000_PulsoRead': CPU = 112.643 ms, elapsed = 140.911 ms.
Time accumulated: CPU = 354.318 ms, elapsed = 530.293 ms.
Peak resident memory used = 65.5 Mbytes.


Notice from spectre during task `MDLControl'.
    56 notices suppressed.


Value of Exported Variables in this iteration of the Search loop ( iteration = 1 ) :
Ten_dif=1.10211
Voltage=0.8
Dif_tempo_min=1e-15
Power1=9.66423e-17
Power2=6.03097e-16
Power3=0
Power4=0
Power5=0
Power6=4.95103e-17
Power7=0
Power8=1.83207e-17
Power9=0
Power10=0
Power11=3.35535e-16
Power=1.10311e-15

+++++++++++++++
Tpread = (1.8n)
+++++++++++++++

Warning from spectre.
    WARNING (CMI-2178): Vgnd: Terminals must not be connected together (to node `0').


******************************************************************
Transient Analysis `PulsoRead-000_PulsoRead': time = (0 s -> 3 ns)
******************************************************************

Notice from spectre during IC analysis, during transient analysis `PulsoRead-000_PulsoRead', during task `MDLControl'.
    GminDC = 1 pS is large enough to noticeably affect the DC solution.
        dV(BL) = 110.544 mV
        Use the `gmin_check' option to eliminate or expand this report.

DC simulation time: CPU = 994 us, elapsed = 1.01495 ms.

Notice from spectre during transient analysis `PulsoRead-000_PulsoRead', during task `MDLControl'.
    No outputs were found. Loosening output filter criterion to `allpub'.


Opening the PSF file Cell.raw/PulsoRead-000_PulsoRead.tran.tran ...
Important parameter values:
    start = 0 s
    outputstart = 0 s
    stop = 3 ns
    step = 3 ps
    maxstep = 60 ps
    ic = all
    useprevic = no
    skipdc = no
    reltol = 1e-03
    abstol(V) = 1 uV
    abstol(I) = 1 pA
    temp = 27 C
    tnom = 27 C
    tempeffects = all
    errpreset = moderate
    method = traponly
    lteratio = 3.5
    relref = sigglobal
    cmin = 0 F
    gmin = 1 pS


Output and IC/nodeset summary:
                 save   16      (current)
                 save   24      (voltage)

...............9...............8.............

Notice from spectre at time = 912.76 ps during transient analysis `PulsoRead-000_PulsoRead', during task `MDLControl'.
    Found trapezoidal ringing on node X2.M_i_0:int_b.

...............9...............8...............7.

Notice from spectre at time = 972.76 ps during transient analysis `PulsoRead-000_PulsoRead', during task `MDLControl'.
    Found trapezoidal ringing on node X2.M_i_0:int_b.

...............9...............8...............7....

Notice from spectre at time = 999.999 ps during transient analysis `PulsoRead-000_PulsoRead', during task `MDLControl'.
    Found trapezoidal ringing on node X2.M_i_0:int_b.

...............9...............8...............7............

Notice from spectre at time = 1.18786 ns during transient analysis `PulsoRead-000_PulsoRead', during task `MDLControl'.
    Found trapezoidal ringing on node Vdd:p.

...............9...............8...............7...............

Notice from spectre at time = 1.2 ns during transient analysis `PulsoRead-000_PulsoRead', during task `MDLControl'.
    Found trapezoidal ringing on node Vdd:p.
        Further occurrences of this notice will be suppressed.

...............9...............8...............7...............6...............5...............4...............3...............2...............1...............0
Number of accepted tran steps =             411

Notice from spectre during transient analysis `PulsoRead-000_PulsoRead', during task `MDLControl'.
    Trapezoidal ringing is detected during tran analysis.
        Please use method=trap for better results and performance.


Maximum value achieved for any signal of each quantity: 
V: V(M_i_4:sbnode) = 1.363 V
I: I(Vpre:p) = 958.8 mA
If your circuit contains signals of the same quantity that are vastly different in size (such as high voltage circuitry combined with low voltage control circuitry), you should consider specifying global option `bin_relref=yes'.

~~~~~~~~~~~~~~~~~~~~~~~~~~~~~~~~~
Post-Transient Simulation Summary
~~~~~~~~~~~~~~~~~~~~~~~~~~~~~~~~~
   -   To further speed up simulation, consider
          add ++aps on command line
~~~~~~~~~~~~~~~~~~~~~~~~~~~~~~~~~


During simulation, the CPU load for active processors is :
        Spectre  0 (17.7 %)      1 (30.6 %)      2 (40.3 %)      3 (17.2 %)
        Other   
Initial condition solution time: CPU = 1.03 ms, elapsed = 1.05786 ms.
Intrinsic tran analysis time:    CPU = 100.469 ms, elapsed = 126.271 ms.
Total time required for tran analysis `PulsoRead-000_PulsoRead': CPU = 103.122 ms, elapsed = 129.036 ms.
Time accumulated: CPU = 463.347 ms, elapsed = 665.358 ms.
Peak resident memory used = 65.6 Mbytes.


Notice from spectre during task `MDLControl'.
    48 notices suppressed.


Value of Exported Variables in this iteration of the Search loop ( iteration = 2 ) :
Ten_dif=1.11269e-05
Voltage=0.8
Dif_tempo_min=3e-10
Power1=2.23411e-15
Power2=1.26424e-15
Power3=0
Power4=0
Power5=0
Power6=2.05666e-16
Power7=0
Power8=1.24018e-17
Power9=0
Power10=0
Power11=7.87682e-16
Power=4.5041e-15

+++++++++++++++++
Tpread = 1.95e-09
+++++++++++++++++

Warning from spectre.
    WARNING (CMI-2178): Vgnd: Terminals must not be connected together (to node `0').


******************************************************************
Transient Analysis `PulsoRead-000_PulsoRead': time = (0 s -> 3 ns)
******************************************************************

Notice from spectre during IC analysis, during transient analysis `PulsoRead-000_PulsoRead', during task `MDLControl'.
    GminDC = 1 pS is large enough to noticeably affect the DC solution.
        dV(BL) = 110.544 mV
        Use the `gmin_check' option to eliminate or expand this report.

DC simulation time: CPU = 975 us, elapsed = 993.013 us.

Notice from spectre during transient analysis `PulsoRead-000_PulsoRead', during task `MDLControl'.
    No outputs were found. Loosening output filter criterion to `allpub'.


Opening the PSF file Cell.raw/PulsoRead-000_PulsoRead.tran.tran ...
Important parameter values:
    start = 0 s
    outputstart = 0 s
    stop = 3 ns
    step = 3 ps
    maxstep = 60 ps
    ic = all
    useprevic = no
    skipdc = no
    reltol = 1e-03
    abstol(V) = 1 uV
    abstol(I) = 1 pA
    temp = 27 C
    tnom = 27 C
    tempeffects = all
    errpreset = moderate
    method = traponly
    lteratio = 3.5
    relref = sigglobal
    cmin = 0 F
    gmin = 1 pS


Output and IC/nodeset summary:
                 save   16      (current)
                 save   24      (voltage)

...............9...............8.............

Notice from spectre at time = 912.76 ps during transient analysis `PulsoRead-000_PulsoRead', during task `MDLControl'.
    Found trapezoidal ringing on node X2.M_i_0:int_b.

...............9...............8...............7.

Notice from spectre at time = 972.76 ps during transient analysis `PulsoRead-000_PulsoRead', during task `MDLControl'.
    Found trapezoidal ringing on node X2.M_i_0:int_b.

...............9...............8...............7....

Notice from spectre at time = 999.999 ps during transient analysis `PulsoRead-000_PulsoRead', during task `MDLControl'.
    Found trapezoidal ringing on node X2.M_i_0:int_b.

...............9...............8...............7............

Notice from spectre at time = 1.18786 ns during transient analysis `PulsoRead-000_PulsoRead', during task `MDLControl'.
    Found trapezoidal ringing on node Vdd:p.

...............9...............8...............7...............

Notice from spectre at time = 1.2 ns during transient analysis `PulsoRead-000_PulsoRead', during task `MDLControl'.
    Found trapezoidal ringing on node Vdd:p.
        Further occurrences of this notice will be suppressed.

...............9...............8...............7...............6...............5...............4...............3...............2...............1...............0
Number of accepted tran steps =             414

Notice from spectre during transient analysis `PulsoRead-000_PulsoRead', during task `MDLControl'.
    Trapezoidal ringing is detected during tran analysis.
        Please use method=trap for better results and performance.


Maximum value achieved for any signal of each quantity: 
V: V(M_i_4:sbnode) = 1.363 V
I: I(Vpre:p) = 958.8 mA
If your circuit contains signals of the same quantity that are vastly different in size (such as high voltage circuitry combined with low voltage control circuitry), you should consider specifying global option `bin_relref=yes'.

~~~~~~~~~~~~~~~~~~~~~~~~~~~~~~~~~
Post-Transient Simulation Summary
~~~~~~~~~~~~~~~~~~~~~~~~~~~~~~~~~
   -   To further speed up simulation, consider
          add ++aps on command line
~~~~~~~~~~~~~~~~~~~~~~~~~~~~~~~~~


During simulation, the CPU load for active processors is :
        Spectre  0 (16.0 %)      1 (27.6 %)      2 (48.0 %)      3 (15.6 %)
        Other   
Initial condition solution time: CPU = 1.008 ms, elapsed = 1.03498 ms.
Intrinsic tran analysis time:    CPU = 101.774 ms, elapsed = 125.866 ms.
Total time required for tran analysis `PulsoRead-000_PulsoRead': CPU = 104.457 ms, elapsed = 128.69 ms.
Time accumulated: CPU = 573.617 ms, elapsed = 800.006 ms.
Peak resident memory used = 65.6 Mbytes.


Notice from spectre during task `MDLControl'.
    47 notices suppressed.


Value of Exported Variables in this iteration of the Search loop ( iteration = 3 ) :
Ten_dif=1.62454e-05
Voltage=0.8
Dif_tempo_min=1.50001e-10
Power1=2.53431e-15
Power2=1.80121e-15
Power3=0
Power4=0
Power5=0
Power6=1.41216e-16
Power7=0
Power8=2.11615e-17
Power9=0
Power10=0
Power11=5.85262e-16
Power=5.08315e-15

++++++++++++++++++
Tpread = 2.025e-09
++++++++++++++++++

Warning from spectre.
    WARNING (CMI-2178): Vgnd: Terminals must not be connected together (to node `0').


******************************************************************
Transient Analysis `PulsoRead-000_PulsoRead': time = (0 s -> 3 ns)
******************************************************************

Notice from spectre during IC analysis, during transient analysis `PulsoRead-000_PulsoRead', during task `MDLControl'.
    GminDC = 1 pS is large enough to noticeably affect the DC solution.
        dV(BL) = 110.544 mV
        Use the `gmin_check' option to eliminate or expand this report.

DC simulation time: CPU = 1.009 ms, elapsed = 1.02687 ms.

Notice from spectre during transient analysis `PulsoRead-000_PulsoRead', during task `MDLControl'.
    No outputs were found. Loosening output filter criterion to `allpub'.


Opening the PSF file Cell.raw/PulsoRead-000_PulsoRead.tran.tran ...
Important parameter values:
    start = 0 s
    outputstart = 0 s
    stop = 3 ns
    step = 3 ps
    maxstep = 60 ps
    ic = all
    useprevic = no
    skipdc = no
    reltol = 1e-03
    abstol(V) = 1 uV
    abstol(I) = 1 pA
    temp = 27 C
    tnom = 27 C
    tempeffects = all
    errpreset = moderate
    method = traponly
    lteratio = 3.5
    relref = sigglobal
    cmin = 0 F
    gmin = 1 pS


Output and IC/nodeset summary:
                 save   16      (current)
                 save   24      (voltage)

...............9...............8.............

Notice from spectre at time = 912.76 ps during transient analysis `PulsoRead-000_PulsoRead', during task `MDLControl'.
    Found trapezoidal ringing on node X2.M_i_0:int_b.

...............9...............8...............7.

Notice from spectre at time = 972.76 ps during transient analysis `PulsoRead-000_PulsoRead', during task `MDLControl'.
    Found trapezoidal ringing on node X2.M_i_0:int_b.

...............9...............8...............7....

Notice from spectre at time = 999.999 ps during transient analysis `PulsoRead-000_PulsoRead', during task `MDLControl'.
    Found trapezoidal ringing on node X2.M_i_0:int_b.

...............9...............8...............7............

Notice from spectre at time = 1.18786 ns during transient analysis `PulsoRead-000_PulsoRead', during task `MDLControl'.
    Found trapezoidal ringing on node Vdd:p.

...............9...............8...............7...............

Notice from spectre at time = 1.2 ns during transient analysis `PulsoRead-000_PulsoRead', during task `MDLControl'.
    Found trapezoidal ringing on node Vdd:p.
        Further occurrences of this notice will be suppressed.

...............9...............8...............7...............6...............5...............4...............3...............2...............1...............0
Number of accepted tran steps =             408

Notice from spectre during transient analysis `PulsoRead-000_PulsoRead', during task `MDLControl'.
    Trapezoidal ringing is detected during tran analysis.
        Please use method=trap for better results and performance.


Maximum value achieved for any signal of each quantity: 
V: V(M_i_4:sbnode) = 1.362 V
I: I(Vpre:p) = 958.7 mA
If your circuit contains signals of the same quantity that are vastly different in size (such as high voltage circuitry combined with low voltage control circuitry), you should consider specifying global option `bin_relref=yes'.

~~~~~~~~~~~~~~~~~~~~~~~~~~~~~~~~~
Post-Transient Simulation Summary
~~~~~~~~~~~~~~~~~~~~~~~~~~~~~~~~~
   -   To further speed up simulation, consider
          add ++aps on command line
~~~~~~~~~~~~~~~~~~~~~~~~~~~~~~~~~


During simulation, the CPU load for active processors is :
        Spectre  0 (16.9 %)      1 (25.3 %)      2 (52.3 %)      3 (13.3 %)
        Other   
Initial condition solution time: CPU = 1.045 ms, elapsed = 1.06978 ms.
Intrinsic tran analysis time:    CPU = 98.964 ms, elapsed = 129.868 ms.
Total time required for tran analysis `PulsoRead-000_PulsoRead': CPU = 101.718 ms, elapsed = 132.767 ms.
Time accumulated: CPU = 681.108 ms, elapsed = 938.67 ms.
Peak resident memory used = 65.7 Mbytes.


Notice from spectre during task `MDLControl'.
    58 notices suppressed.


Value of Exported Variables in this iteration of the Search loop ( iteration = 4 ) :
Ten_dif=0.00018023
Voltage=0.8
Dif_tempo_min=7.50008e-11
Power1=2.33047e-15
Power2=1.77844e-15
Power3=0
Power4=0
Power5=0
Power6=1.36563e-16
Power7=0
Power8=2.10892e-17
Power9=0
Power10=0
Power11=3.97421e-16
Power=4.66398e-15

+++++++++++++++++++
Tpread = 2.0625e-09
+++++++++++++++++++

Warning from spectre.
    WARNING (CMI-2178): Vgnd: Terminals must not be connected together (to node `0').


******************************************************************
Transient Analysis `PulsoRead-000_PulsoRead': time = (0 s -> 3 ns)
******************************************************************

Notice from spectre during IC analysis, during transient analysis `PulsoRead-000_PulsoRead', during task `MDLControl'.
    GminDC = 1 pS is large enough to noticeably affect the DC solution.
        dV(BL) = 110.544 mV
        Use the `gmin_check' option to eliminate or expand this report.

DC simulation time: CPU = 1.146 ms, elapsed = 1.16992 ms.

Notice from spectre during transient analysis `PulsoRead-000_PulsoRead', during task `MDLControl'.
    No outputs were found. Loosening output filter criterion to `allpub'.


Opening the PSF file Cell.raw/PulsoRead-000_PulsoRead.tran.tran ...
Important parameter values:
    start = 0 s
    outputstart = 0 s
    stop = 3 ns
    step = 3 ps
    maxstep = 60 ps
    ic = all
    useprevic = no
    skipdc = no
    reltol = 1e-03
    abstol(V) = 1 uV
    abstol(I) = 1 pA
    temp = 27 C
    tnom = 27 C
    tempeffects = all
    errpreset = moderate
    method = traponly
    lteratio = 3.5
    relref = sigglobal
    cmin = 0 F
    gmin = 1 pS


Output and IC/nodeset summary:
                 save   16      (current)
                 save   24      (voltage)

...............9...............8.............

Notice from spectre at time = 912.76 ps during transient analysis `PulsoRead-000_PulsoRead', during task `MDLControl'.
    Found trapezoidal ringing on node X2.M_i_0:int_b.

...............9...............8...............7.

Notice from spectre at time = 972.76 ps during transient analysis `PulsoRead-000_PulsoRead', during task `MDLControl'.
    Found trapezoidal ringing on node X2.M_i_0:int_b.

...............9...............8...............7....

Notice from spectre at time = 999.999 ps during transient analysis `PulsoRead-000_PulsoRead', during task `MDLControl'.
    Found trapezoidal ringing on node X2.M_i_0:int_b.

...............9...............8...............7............

Notice from spectre at time = 1.18786 ns during transient analysis `PulsoRead-000_PulsoRead', during task `MDLControl'.
    Found trapezoidal ringing on node Vdd:p.

...............9...............8...............7...............

Notice from spectre at time = 1.2 ns during transient analysis `PulsoRead-000_PulsoRead', during task `MDLControl'.
    Found trapezoidal ringing on node Vdd:p.
        Further occurrences of this notice will be suppressed.

...............9...............8...............7...............6...............5...............4...............3...............2...............1...............0
Number of accepted tran steps =             400

Notice from spectre during transient analysis `PulsoRead-000_PulsoRead', during task `MDLControl'.
    Trapezoidal ringing is detected during tran analysis.
        Please use method=trap for better results and performance.


Maximum value achieved for any signal of each quantity: 
V: V(M_i_4:sbnode) = 1.364 V
I: I(Vpre:p) = 959.1 mA
If your circuit contains signals of the same quantity that are vastly different in size (such as high voltage circuitry combined with low voltage control circuitry), you should consider specifying global option `bin_relref=yes'.

~~~~~~~~~~~~~~~~~~~~~~~~~~~~~~~~~
Post-Transient Simulation Summary
~~~~~~~~~~~~~~~~~~~~~~~~~~~~~~~~~
   -   To further speed up simulation, consider
          add ++aps on command line
~~~~~~~~~~~~~~~~~~~~~~~~~~~~~~~~~


During simulation, the CPU load for active processors is :
        Spectre  0 (15.8 %)      1 (23.3 %)      2 (56.4 %)      3 (12.6 %)
        Other   
Initial condition solution time: CPU = 1.189 ms, elapsed = 1.21903 ms.
Intrinsic tran analysis time:    CPU = 97.028 ms, elapsed = 121.671 ms.
Total time required for tran analysis `PulsoRead-000_PulsoRead': CPU = 100.534 ms, elapsed = 125.324 ms.
Time accumulated: CPU = 787.56 ms, elapsed = 1.07 s.
Peak resident memory used = 65.7 Mbytes.


Notice from spectre during task `MDLControl'.
    58 notices suppressed.


Value of Exported Variables in this iteration of the Search loop ( iteration = 5 ) :
Ten_dif=0.18083
Voltage=0.8
Dif_tempo_min=3.75009e-11
Power1=1.67628e-15
Power2=1.5534e-15
Power3=0
Power4=0
Power5=0
Power6=7.71819e-17
Power7=0
Power8=2.0656e-17
Power9=0
Power10=0
Power11=3.11465e-17
Power=3.35866e-15

++++++++++++++++++++
Tpread = 2.04375e-09
++++++++++++++++++++

Warning from spectre.
    WARNING (CMI-2178): Vgnd: Terminals must not be connected together (to node `0').


******************************************************************
Transient Analysis `PulsoRead-000_PulsoRead': time = (0 s -> 3 ns)
******************************************************************

Notice from spectre during IC analysis, during transient analysis `PulsoRead-000_PulsoRead', during task `MDLControl'.
    GminDC = 1 pS is large enough to noticeably affect the DC solution.
        dV(BL) = 110.544 mV
        Use the `gmin_check' option to eliminate or expand this report.

DC simulation time: CPU = 1.067 ms, elapsed = 1.0829 ms.

Notice from spectre during transient analysis `PulsoRead-000_PulsoRead', during task `MDLControl'.
    No outputs were found. Loosening output filter criterion to `allpub'.


Opening the PSF file Cell.raw/PulsoRead-000_PulsoRead.tran.tran ...
Important parameter values:
    start = 0 s
    outputstart = 0 s
    stop = 3 ns
    step = 3 ps
    maxstep = 60 ps
    ic = all
    useprevic = no
    skipdc = no
    reltol = 1e-03
    abstol(V) = 1 uV
    abstol(I) = 1 pA
    temp = 27 C
    tnom = 27 C
    tempeffects = all
    errpreset = moderate
    method = traponly
    lteratio = 3.5
    relref = sigglobal
    cmin = 0 F
    gmin = 1 pS


Output and IC/nodeset summary:
                 save   16      (current)
                 save   24      (voltage)

...............9...............8.............

Notice from spectre at time = 912.76 ps during transient analysis `PulsoRead-000_PulsoRead', during task `MDLControl'.
    Found trapezoidal ringing on node X2.M_i_0:int_b.

...............9...............8...............7.

Notice from spectre at time = 972.76 ps during transient analysis `PulsoRead-000_PulsoRead', during task `MDLControl'.
    Found trapezoidal ringing on node X2.M_i_0:int_b.

...............9...............8...............7....

Notice from spectre at time = 999.999 ps during transient analysis `PulsoRead-000_PulsoRead', during task `MDLControl'.
    Found trapezoidal ringing on node X2.M_i_0:int_b.

...............9...............8...............7............

Notice from spectre at time = 1.18786 ns during transient analysis `PulsoRead-000_PulsoRead', during task `MDLControl'.
    Found trapezoidal ringing on node Vdd:p.

...............9...............8...............7...............

Notice from spectre at time = 1.2 ns during transient analysis `PulsoRead-000_PulsoRead', during task `MDLControl'.
    Found trapezoidal ringing on node Vdd:p.
        Further occurrences of this notice will be suppressed.

...............9...............8...............7...............6...............5...............4...............3...............2...............1...............0
Number of accepted tran steps =             423

Notice from spectre during transient analysis `PulsoRead-000_PulsoRead', during task `MDLControl'.
    Trapezoidal ringing is detected during tran analysis.
        Please use method=trap for better results and performance.


Maximum value achieved for any signal of each quantity: 
V: V(M_i_4:sbnode) = 1.361 V
I: I(Vpre:p) = 960.8 mA
If your circuit contains signals of the same quantity that are vastly different in size (such as high voltage circuitry combined with low voltage control circuitry), you should consider specifying global option `bin_relref=yes'.

~~~~~~~~~~~~~~~~~~~~~~~~~~~~~~~~~
Post-Transient Simulation Summary
~~~~~~~~~~~~~~~~~~~~~~~~~~~~~~~~~
   -   To further speed up simulation, consider
          add ++aps on command line
~~~~~~~~~~~~~~~~~~~~~~~~~~~~~~~~~


During simulation, the CPU load for active processors is :
        Spectre  0 (16.4 %)      1 (22.0 %)      2 (59.8 %)      3 (12.8 %)
        Other   
Initial condition solution time: CPU = 1.101 ms, elapsed = 1.12391 ms.
Intrinsic tran analysis time:    CPU = 111.08 ms, elapsed = 138.82 ms.
Total time required for tran analysis `PulsoRead-000_PulsoRead': CPU = 113.9 ms, elapsed = 141.785 ms.
Time accumulated: CPU = 907.211 ms, elapsed = 1.21767 s.
Peak resident memory used = 65.7 Mbytes.


Notice from spectre during task `MDLControl'.
    67 notices suppressed.


Value of Exported Variables in this iteration of the Search loop ( iteration = 6 ) :
Ten_dif=0.0119892
Voltage=0.8
Dif_tempo_min=5.62508e-11
Power1=2.15201e-15
Power2=1.70253e-15
Power3=0
Power4=0
Power5=0
Power6=1.21717e-16
Power7=0
Power8=2.11455e-17
Power9=0
Power10=0
Power11=3.0737e-16
Power=4.30477e-15

++++++++++++++++++++
Tpread = 2.05312e-09
++++++++++++++++++++

Warning from spectre.
    WARNING (CMI-2178): Vgnd: Terminals must not be connected together (to node `0').


******************************************************************
Transient Analysis `PulsoRead-000_PulsoRead': time = (0 s -> 3 ns)
******************************************************************

Notice from spectre during IC analysis, during transient analysis `PulsoRead-000_PulsoRead', during task `MDLControl'.
    GminDC = 1 pS is large enough to noticeably affect the DC solution.
        dV(BL) = 110.544 mV
        Use the `gmin_check' option to eliminate or expand this report.

DC simulation time: CPU = 1.011 ms, elapsed = 1.02711 ms.

Notice from spectre during transient analysis `PulsoRead-000_PulsoRead', during task `MDLControl'.
    No outputs were found. Loosening output filter criterion to `allpub'.


Opening the PSF file Cell.raw/PulsoRead-000_PulsoRead.tran.tran ...
Important parameter values:
    start = 0 s
    outputstart = 0 s
    stop = 3 ns
    step = 3 ps
    maxstep = 60 ps
    ic = all
    useprevic = no
    skipdc = no
    reltol = 1e-03
    abstol(V) = 1 uV
    abstol(I) = 1 pA
    temp = 27 C
    tnom = 27 C
    tempeffects = all
    errpreset = moderate
    method = traponly
    lteratio = 3.5
    relref = sigglobal
    cmin = 0 F
    gmin = 1 pS


Output and IC/nodeset summary:
                 save   16      (current)
                 save   24      (voltage)

...............9...............8.............

Notice from spectre at time = 912.76 ps during transient analysis `PulsoRead-000_PulsoRead', during task `MDLControl'.
    Found trapezoidal ringing on node X2.M_i_0:int_b.

...............9...............8...............7.

Notice from spectre at time = 972.76 ps during transient analysis `PulsoRead-000_PulsoRead', during task `MDLControl'.
    Found trapezoidal ringing on node X2.M_i_0:int_b.

...............9...............8...............7....

Notice from spectre at time = 999.999 ps during transient analysis `PulsoRead-000_PulsoRead', during task `MDLControl'.
    Found trapezoidal ringing on node X2.M_i_0:int_b.

...............9...............8...............7............

Notice from spectre at time = 1.18786 ns during transient analysis `PulsoRead-000_PulsoRead', during task `MDLControl'.
    Found trapezoidal ringing on node Vdd:p.

...............9...............8...............7...............

Notice from spectre at time = 1.2 ns during transient analysis `PulsoRead-000_PulsoRead', during task `MDLControl'.
    Found trapezoidal ringing on node Vdd:p.
        Further occurrences of this notice will be suppressed.

...............9...............8...............7...............6...............5...............4...............3...............2...............1...............0
Number of accepted tran steps =             404

Notice from spectre during transient analysis `PulsoRead-000_PulsoRead', during task `MDLControl'.
    Trapezoidal ringing is detected during tran analysis.
        Please use method=trap for better results and performance.


Maximum value achieved for any signal of each quantity: 
V: V(M_i_4:sbnode) = 1.361 V
I: I(Vpre:p) = 959.9 mA
If your circuit contains signals of the same quantity that are vastly different in size (such as high voltage circuitry combined with low voltage control circuitry), you should consider specifying global option `bin_relref=yes'.

~~~~~~~~~~~~~~~~~~~~~~~~~~~~~~~~~
Post-Transient Simulation Summary
~~~~~~~~~~~~~~~~~~~~~~~~~~~~~~~~~
   -   To further speed up simulation, consider
          add ++aps on command line
~~~~~~~~~~~~~~~~~~~~~~~~~~~~~~~~~


During simulation, the CPU load for active processors is :
        Spectre  0 (16.8 %)      1 (21.2 %)      2 (62.6 %)      3 (12.1 %)
        Other   
Initial condition solution time: CPU = 1.049 ms, elapsed = 1.07121 ms.
Intrinsic tran analysis time:    CPU = 110.27 ms, elapsed = 132.054 ms.
Total time required for tran analysis `PulsoRead-000_PulsoRead': CPU = 112.997 ms, elapsed = 134.909 ms.
Time accumulated: CPU = 1.02619 s, elapsed = 1.35869 s.
Peak resident memory used = 65.8 Mbytes.


Notice from spectre during task `MDLControl'.
    57 notices suppressed.


Value of Exported Variables in this iteration of the Search loop ( iteration = 7 ) :
Ten_dif=0.0622523
Voltage=0.8
Dif_tempo_min=4.68758e-11
Power1=1.95853e-15
Power2=1.63884e-15
Power3=0
Power4=0
Power5=0
Power6=1.03116e-16
Power7=0
Power8=2.07947e-17
Power9=0
Power10=0
Power11=1.94855e-16
Power=3.91614e-15

++++++++++++++++++++
Tpread = 2.05781e-09
++++++++++++++++++++

Warning from spectre.
    WARNING (CMI-2178): Vgnd: Terminals must not be connected together (to node `0').


******************************************************************
Transient Analysis `PulsoRead-000_PulsoRead': time = (0 s -> 3 ns)
******************************************************************

Notice from spectre during IC analysis, during transient analysis `PulsoRead-000_PulsoRead', during task `MDLControl'.
    GminDC = 1 pS is large enough to noticeably affect the DC solution.
        dV(BL) = 110.544 mV
        Use the `gmin_check' option to eliminate or expand this report.

DC simulation time: CPU = 970 us, elapsed = 988.007 us.

Notice from spectre during transient analysis `PulsoRead-000_PulsoRead', during task `MDLControl'.
    No outputs were found. Loosening output filter criterion to `allpub'.


Opening the PSF file Cell.raw/PulsoRead-000_PulsoRead.tran.tran ...
Important parameter values:
    start = 0 s
    outputstart = 0 s
    stop = 3 ns
    step = 3 ps
    maxstep = 60 ps
    ic = all
    useprevic = no
    skipdc = no
    reltol = 1e-03
    abstol(V) = 1 uV
    abstol(I) = 1 pA
    temp = 27 C
    tnom = 27 C
    tempeffects = all
    errpreset = moderate
    method = traponly
    lteratio = 3.5
    relref = sigglobal
    cmin = 0 F
    gmin = 1 pS


Output and IC/nodeset summary:
                 save   16      (current)
                 save   24      (voltage)

...............9...............8.............

Notice from spectre at time = 912.76 ps during transient analysis `PulsoRead-000_PulsoRead', during task `MDLControl'.
    Found trapezoidal ringing on node X2.M_i_0:int_b.

...............9...............8...............7.

Notice from spectre at time = 972.76 ps during transient analysis `PulsoRead-000_PulsoRead', during task `MDLControl'.
    Found trapezoidal ringing on node X2.M_i_0:int_b.

...............9...............8...............7....

Notice from spectre at time = 999.999 ps during transient analysis `PulsoRead-000_PulsoRead', during task `MDLControl'.
    Found trapezoidal ringing on node X2.M_i_0:int_b.

...............9...............8...............7............

Notice from spectre at time = 1.18786 ns during transient analysis `PulsoRead-000_PulsoRead', during task `MDLControl'.
    Found trapezoidal ringing on node Vdd:p.

...............9...............8...............7...............

Notice from spectre at time = 1.2 ns during transient analysis `PulsoRead-000_PulsoRead', during task `MDLControl'.
    Found trapezoidal ringing on node Vdd:p.
        Further occurrences of this notice will be suppressed.

...............9...............8...............7...............6...............5...............4...............3...............2...............1...............0
Number of accepted tran steps =             404

Notice from spectre during transient analysis `PulsoRead-000_PulsoRead', during task `MDLControl'.
    Trapezoidal ringing is detected during tran analysis.
        Please use method=trap for better results and performance.


Maximum value achieved for any signal of each quantity: 
V: V(M_i_4:sbnode) = 1.362 V
I: I(Vpre:p) = 959.8 mA
If your circuit contains signals of the same quantity that are vastly different in size (such as high voltage circuitry combined with low voltage control circuitry), you should consider specifying global option `bin_relref=yes'.

~~~~~~~~~~~~~~~~~~~~~~~~~~~~~~~~~
Post-Transient Simulation Summary
~~~~~~~~~~~~~~~~~~~~~~~~~~~~~~~~~
   -   To further speed up simulation, consider
          add ++aps on command line
~~~~~~~~~~~~~~~~~~~~~~~~~~~~~~~~~


During simulation, the CPU load for active processors is :
        Spectre  0 (16.0 %)      1 (20.5 %)      2 (64.6 %)      3 (11.7 %)
        Other   
Initial condition solution time: CPU = 1.005 ms, elapsed = 1.02901 ms.
Intrinsic tran analysis time:    CPU = 98.478 ms, elapsed = 129.097 ms.
Total time required for tran analysis `PulsoRead-000_PulsoRead': CPU = 101.166 ms, elapsed = 131.922 ms.
Time accumulated: CPU = 1.13325 s, elapsed = 1.49663 s.
Peak resident memory used = 65.8 Mbytes.


Notice from spectre during task `MDLControl'.
    59 notices suppressed.


Value of Exported Variables in this iteration of the Search loop ( iteration = 8 ) :
Ten_dif=0.115589
Voltage=0.8
Dif_tempo_min=4.21884e-11
Power1=1.82425e-15
Power2=1.59687e-15
Power3=0
Power4=0
Power5=0
Power6=9.0763e-17
Power7=0
Power8=2.0717e-17
Power9=0
Power10=0
Power11=1.17325e-16
Power=3.64993e-15

++++++++++++++++++++
Tpread = 2.05547e-09
++++++++++++++++++++

Warning from spectre.
    WARNING (CMI-2178): Vgnd: Terminals must not be connected together (to node `0').


******************************************************************
Transient Analysis `PulsoRead-000_PulsoRead': time = (0 s -> 3 ns)
******************************************************************

Notice from spectre during IC analysis, during transient analysis `PulsoRead-000_PulsoRead', during task `MDLControl'.
    GminDC = 1 pS is large enough to noticeably affect the DC solution.
        dV(BL) = 110.544 mV
        Use the `gmin_check' option to eliminate or expand this report.

DC simulation time: CPU = 1.062 ms, elapsed = 1.086 ms.

Notice from spectre during transient analysis `PulsoRead-000_PulsoRead', during task `MDLControl'.
    No outputs were found. Loosening output filter criterion to `allpub'.


Opening the PSF file Cell.raw/PulsoRead-000_PulsoRead.tran.tran ...
Important parameter values:
    start = 0 s
    outputstart = 0 s
    stop = 3 ns
    step = 3 ps
    maxstep = 60 ps
    ic = all
    useprevic = no
    skipdc = no
    reltol = 1e-03
    abstol(V) = 1 uV
    abstol(I) = 1 pA
    temp = 27 C
    tnom = 27 C
    tempeffects = all
    errpreset = moderate
    method = traponly
    lteratio = 3.5
    relref = sigglobal
    cmin = 0 F
    gmin = 1 pS


Output and IC/nodeset summary:
                 save   16      (current)
                 save   24      (voltage)

...............9...............8.............

Notice from spectre at time = 912.76 ps during transient analysis `PulsoRead-000_PulsoRead', during task `MDLControl'.
    Found trapezoidal ringing on node X2.M_i_0:int_b.

...............9...............8...............7.

Notice from spectre at time = 972.76 ps during transient analysis `PulsoRead-000_PulsoRead', during task `MDLControl'.
    Found trapezoidal ringing on node X2.M_i_0:int_b.

...............9...............8...............7....

Notice from spectre at time = 999.999 ps during transient analysis `PulsoRead-000_PulsoRead', during task `MDLControl'.
    Found trapezoidal ringing on node X2.M_i_0:int_b.

...............9...............8...............7............

Notice from spectre at time = 1.18786 ns during transient analysis `PulsoRead-000_PulsoRead', during task `MDLControl'.
    Found trapezoidal ringing on node Vdd:p.

...............9...............8...............7...............

Notice from spectre at time = 1.2 ns during transient analysis `PulsoRead-000_PulsoRead', during task `MDLControl'.
    Found trapezoidal ringing on node Vdd:p.
        Further occurrences of this notice will be suppressed.

...............9...............8...............7...............6...............5...............4...............3...............2...............1...............0
Number of accepted tran steps =             405

Notice from spectre during transient analysis `PulsoRead-000_PulsoRead', during task `MDLControl'.
    Trapezoidal ringing is detected during tran analysis.
        Please use method=trap for better results and performance.


Maximum value achieved for any signal of each quantity: 
V: V(M_i_4:sbnode) = 1.361 V
I: I(Vpre:p) = 960 mA
If your circuit contains signals of the same quantity that are vastly different in size (such as high voltage circuitry combined with low voltage control circuitry), you should consider specifying global option `bin_relref=yes'.

~~~~~~~~~~~~~~~~~~~~~~~~~~~~~~~~~
Post-Transient Simulation Summary
~~~~~~~~~~~~~~~~~~~~~~~~~~~~~~~~~
   -   To further speed up simulation, consider
          add ++aps on command line
~~~~~~~~~~~~~~~~~~~~~~~~~~~~~~~~~


During simulation, the CPU load for active processors is :
        Spectre  0 (15.9 %)      1 (19.6 %)      2 (66.2 %)      3 (11.4 %)
        Other   
Initial condition solution time: CPU = 1.11 ms, elapsed = 1.14012 ms.
Intrinsic tran analysis time:    CPU = 98.428 ms, elapsed = 124.239 ms.
Total time required for tran analysis `PulsoRead-000_PulsoRead': CPU = 101.418 ms, elapsed = 127.372 ms.
Time accumulated: CPU = 1.24057 s, elapsed = 1.63002 s.
Peak resident memory used = 65.8 Mbytes.


Notice from spectre during task `MDLControl'.
    46 notices suppressed.


Value of Exported Variables in this iteration of the Search loop ( iteration = 9 ) :
Ten_dif=0.0867825
Voltage=0.8
Dif_tempo_min=4.45321e-11
Power1=1.89361e-15
Power2=1.6181e-15
Power3=0
Power4=0
Power5=0
Power6=9.71552e-17
Power7=0
Power8=2.07627e-17
Power9=0
Power10=0
Power11=1.57512e-16
Power=3.78714e-15

++++++++++++++++++++
Tpread = 2.05664e-09
++++++++++++++++++++

Warning from spectre.
    WARNING (CMI-2178): Vgnd: Terminals must not be connected together (to node `0').


******************************************************************
Transient Analysis `PulsoRead-000_PulsoRead': time = (0 s -> 3 ns)
******************************************************************

Notice from spectre during IC analysis, during transient analysis `PulsoRead-000_PulsoRead', during task `MDLControl'.
    GminDC = 1 pS is large enough to noticeably affect the DC solution.
        dV(BL) = 110.544 mV
        Use the `gmin_check' option to eliminate or expand this report.

DC simulation time: CPU = 965 us, elapsed = 980.139 us.

Notice from spectre during transient analysis `PulsoRead-000_PulsoRead', during task `MDLControl'.
    No outputs were found. Loosening output filter criterion to `allpub'.


Opening the PSF file Cell.raw/PulsoRead-000_PulsoRead.tran.tran ...
Important parameter values:
    start = 0 s
    outputstart = 0 s
    stop = 3 ns
    step = 3 ps
    maxstep = 60 ps
    ic = all
    useprevic = no
    skipdc = no
    reltol = 1e-03
    abstol(V) = 1 uV
    abstol(I) = 1 pA
    temp = 27 C
    tnom = 27 C
    tempeffects = all
    errpreset = moderate
    method = traponly
    lteratio = 3.5
    relref = sigglobal
    cmin = 0 F
    gmin = 1 pS


Output and IC/nodeset summary:
                 save   16      (current)
                 save   24      (voltage)

...............9...............8.............

Notice from spectre at time = 912.76 ps during transient analysis `PulsoRead-000_PulsoRead', during task `MDLControl'.
    Found trapezoidal ringing on node X2.M_i_0:int_b.

...............9...............8...............7.

Notice from spectre at time = 972.76 ps during transient analysis `PulsoRead-000_PulsoRead', during task `MDLControl'.
    Found trapezoidal ringing on node X2.M_i_0:int_b.

...............9...............8...............7....

Notice from spectre at time = 999.999 ps during transient analysis `PulsoRead-000_PulsoRead', during task `MDLControl'.
    Found trapezoidal ringing on node X2.M_i_0:int_b.

...............9...............8...............7............

Notice from spectre at time = 1.18786 ns during transient analysis `PulsoRead-000_PulsoRead', during task `MDLControl'.
    Found trapezoidal ringing on node Vdd:p.

...............9...............8...............7...............

Notice from spectre at time = 1.2 ns during transient analysis `PulsoRead-000_PulsoRead', during task `MDLControl'.
    Found trapezoidal ringing on node Vdd:p.
        Further occurrences of this notice will be suppressed.

...............9...............8...............7...............6...............5...............4...............3...............2...............1...............0
Number of accepted tran steps =             403

Notice from spectre during transient analysis `PulsoRead-000_PulsoRead', during task `MDLControl'.
    Trapezoidal ringing is detected during tran analysis.
        Please use method=trap for better results and performance.


Maximum value achieved for any signal of each quantity: 
V: V(M_i_4:sbnode) = 1.361 V
I: I(Vpre:p) = 959.9 mA
If your circuit contains signals of the same quantity that are vastly different in size (such as high voltage circuitry combined with low voltage control circuitry), you should consider specifying global option `bin_relref=yes'.

~~~~~~~~~~~~~~~~~~~~~~~~~~~~~~~~~
Post-Transient Simulation Summary
~~~~~~~~~~~~~~~~~~~~~~~~~~~~~~~~~
   -   To further speed up simulation, consider
          add ++aps on command line
~~~~~~~~~~~~~~~~~~~~~~~~~~~~~~~~~


During simulation, the CPU load for active processors is :
        Spectre  0 (17.0 %)      1 (19.1 %)      2 (66.9 %)      3 (11.1 %)
        Other   
Initial condition solution time: CPU = 999 us, elapsed = 1.0221 ms.
Intrinsic tran analysis time:    CPU = 102.456 ms, elapsed = 128.29 ms.
Total time required for tran analysis `PulsoRead-000_PulsoRead': CPU = 105.126 ms, elapsed = 131.096 ms.
Time accumulated: CPU = 1.35157 s, elapsed = 1.7671 s.
Peak resident memory used = 65.9 Mbytes.


Notice from spectre during task `MDLControl'.
    51 notices suppressed.


Value of Exported Variables in this iteration of the Search loop ( iteration = 10 ) :
Ten_dif=0.101134
Voltage=0.8
Dif_tempo_min=4.33602e-11
Power1=1.95952e-15
Power2=1.60744e-15
Power3=0
Power4=0
Power5=0
Power6=9.40189e-17
Power7=0
Power8=2.07733e-17
Power9=0
Power10=0
Power11=2.44383e-16
Power=3.92613e-15

++++++++++++++++++++
Tpread = 2.05605e-09
++++++++++++++++++++

Warning from spectre.
    WARNING (CMI-2178): Vgnd: Terminals must not be connected together (to node `0').


******************************************************************
Transient Analysis `PulsoRead-000_PulsoRead': time = (0 s -> 3 ns)
******************************************************************

Notice from spectre during IC analysis, during transient analysis `PulsoRead-000_PulsoRead', during task `MDLControl'.
    GminDC = 1 pS is large enough to noticeably affect the DC solution.
        dV(BL) = 110.544 mV
        Use the `gmin_check' option to eliminate or expand this report.

DC simulation time: CPU = 938 us, elapsed = 954.866 us.

Notice from spectre during transient analysis `PulsoRead-000_PulsoRead', during task `MDLControl'.
    No outputs were found. Loosening output filter criterion to `allpub'.


Opening the PSF file Cell.raw/PulsoRead-000_PulsoRead.tran.tran ...
Important parameter values:
    start = 0 s
    outputstart = 0 s
    stop = 3 ns
    step = 3 ps
    maxstep = 60 ps
    ic = all
    useprevic = no
    skipdc = no
    reltol = 1e-03
    abstol(V) = 1 uV
    abstol(I) = 1 pA
    temp = 27 C
    tnom = 27 C
    tempeffects = all
    errpreset = moderate
    method = traponly
    lteratio = 3.5
    relref = sigglobal
    cmin = 0 F
    gmin = 1 pS


Output and IC/nodeset summary:
                 save   16      (current)
                 save   24      (voltage)

...............9...............8.............

Notice from spectre at time = 912.76 ps during transient analysis `PulsoRead-000_PulsoRead', during task `MDLControl'.
    Found trapezoidal ringing on node X2.M_i_0:int_b.

...............9...............8...............7.

Notice from spectre at time = 972.76 ps during transient analysis `PulsoRead-000_PulsoRead', during task `MDLControl'.
    Found trapezoidal ringing on node X2.M_i_0:int_b.

...............9...............8...............7....

Notice from spectre at time = 999.999 ps during transient analysis `PulsoRead-000_PulsoRead', during task `MDLControl'.
    Found trapezoidal ringing on node X2.M_i_0:int_b.

...............9...............8...............7............

Notice from spectre at time = 1.18786 ns during transient analysis `PulsoRead-000_PulsoRead', during task `MDLControl'.
    Found trapezoidal ringing on node Vdd:p.

...............9...............8...............7...............

Notice from spectre at time = 1.2 ns during transient analysis `PulsoRead-000_PulsoRead', during task `MDLControl'.
    Found trapezoidal ringing on node Vdd:p.
        Further occurrences of this notice will be suppressed.

...............9...............8...............7...............6...............5...............4...............3...............2...............1...............0
Number of accepted tran steps =             405

Notice from spectre during transient analysis `PulsoRead-000_PulsoRead', during task `MDLControl'.
    Trapezoidal ringing is detected during tran analysis.
        Please use method=trap for better results and performance.


Maximum value achieved for any signal of each quantity: 
V: V(M_i_4:sbnode) = 1.361 V
I: I(Vpre:p) = 959.9 mA
If your circuit contains signals of the same quantity that are vastly different in size (such as high voltage circuitry combined with low voltage control circuitry), you should consider specifying global option `bin_relref=yes'.

~~~~~~~~~~~~~~~~~~~~~~~~~~~~~~~~~
Post-Transient Simulation Summary
~~~~~~~~~~~~~~~~~~~~~~~~~~~~~~~~~
   -   To further speed up simulation, consider
          add ++aps on command line
~~~~~~~~~~~~~~~~~~~~~~~~~~~~~~~~~


During simulation, the CPU load for active processors is :
        Spectre  0 (17.3 %)      1 (18.3 %)      2 (67.9 %)      3 (11.3 %)
        Other   
Initial condition solution time: CPU = 973 us, elapsed = 994.921 us.
Intrinsic tran analysis time:    CPU = 99.341 ms, elapsed = 129.974 ms.
Total time required for tran analysis `PulsoRead-000_PulsoRead': CPU = 101.97 ms, elapsed = 132.729 ms.
Time accumulated: CPU = 1.4593 s, elapsed = 1.90572 s.
Peak resident memory used = 65.9 Mbytes.


Notice from spectre during task `MDLControl'.
    48 notices suppressed.


Value of Exported Variables in this iteration of the Search loop ( iteration = 11 ) :
Ten_dif=0.0937449
Voltage=0.8
Dif_tempo_min=4.39462e-11
Power1=1.87647e-15
Power2=1.61277e-15
Power3=0
Power4=0
Power5=0
Power6=9.55819e-17
Power7=0
Power8=2.07545e-17
Power9=0
Power10=0
Power11=1.47593e-16
Power=3.75316e-15

++++++++++++++++++++++++++++++++++++++++++++
Optimization completed. Tpread = 2.05605e-09
++++++++++++++++++++++++++++++++++++++++++++

******************************************************************
Transient Analysis `PulsoRead-000_PulsoRead': time = (0 s -> 3 ns)
******************************************************************

Notice from spectre during IC analysis, during transient analysis `PulsoRead-000_PulsoRead', during task `MDLControl'.
    GminDC = 1 pS is large enough to noticeably affect the DC solution.
        dV(BL) = 110.544 mV
        Use the `gmin_check' option to eliminate or expand this report.

DC simulation time: CPU = 1.07 ms, elapsed = 1.09911 ms.

Notice from spectre during transient analysis `PulsoRead-000_PulsoRead', during task `MDLControl'.
    No outputs were found. Loosening output filter criterion to `allpub'.


Opening the PSF file Cell.raw/PulsoRead-000_PulsoRead.tran.tran ...
Important parameter values:
    start = 0 s
    outputstart = 0 s
    stop = 3 ns
    step = 3 ps
    maxstep = 60 ps
    ic = all
    useprevic = no
    skipdc = no
    reltol = 1e-03
    abstol(V) = 1 uV
    abstol(I) = 1 pA
    temp = 27 C
    tnom = 27 C
    tempeffects = all
    errpreset = moderate
    method = traponly
    lteratio = 3.5
    relref = sigglobal
    cmin = 0 F
    gmin = 1 pS


Output and IC/nodeset summary:
                 save   16      (current)
                 save   24      (voltage)

...............9...............8.............

Notice from spectre at time = 912.76 ps during transient analysis `PulsoRead-000_PulsoRead', during task `MDLControl'.
    Found trapezoidal ringing on node X2.M_i_0:int_b.

...............9...............8...............7.

Notice from spectre at time = 972.76 ps during transient analysis `PulsoRead-000_PulsoRead', during task `MDLControl'.
    Found trapezoidal ringing on node X2.M_i_0:int_b.

...............9...............8...............7....

Notice from spectre at time = 999.999 ps during transient analysis `PulsoRead-000_PulsoRead', during task `MDLControl'.
    Found trapezoidal ringing on node X2.M_i_0:int_b.

...............9...............8...............7............

Notice from spectre at time = 1.18786 ns during transient analysis `PulsoRead-000_PulsoRead', during task `MDLControl'.
    Found trapezoidal ringing on node Vdd:p.

...............9...............8...............7...............

Notice from spectre at time = 1.2 ns during transient analysis `PulsoRead-000_PulsoRead', during task `MDLControl'.
    Found trapezoidal ringing on node Vdd:p.
        Further occurrences of this notice will be suppressed.

...............9...............8...............7...............6...............5...............4...............3...............2...............1...............0
Number of accepted tran steps =             405

Notice from spectre during transient analysis `PulsoRead-000_PulsoRead', during task `MDLControl'.
    Trapezoidal ringing is detected during tran analysis.
        Please use method=trap for better results and performance.


Maximum value achieved for any signal of each quantity: 
V: V(M_i_4:sbnode) = 1.361 V
I: I(Vpre:p) = 959.9 mA
If your circuit contains signals of the same quantity that are vastly different in size (such as high voltage circuitry combined with low voltage control circuitry), you should consider specifying global option `bin_relref=yes'.

~~~~~~~~~~~~~~~~~~~~~~~~~~~~~~~~~
Post-Transient Simulation Summary
~~~~~~~~~~~~~~~~~~~~~~~~~~~~~~~~~
   -   To further speed up simulation, consider
          add ++aps on command line
~~~~~~~~~~~~~~~~~~~~~~~~~~~~~~~~~


During simulation, the CPU load for active processors is :
        Spectre  0 (16.7 %)      1 (17.6 %)      2 (68.8 %)      3 (11.6 %)
        Other   
Initial condition solution time: CPU = 1.114 ms, elapsed = 1.15108 ms.
Intrinsic tran analysis time:    CPU = 98.289 ms, elapsed = 124.179 ms.
Total time required for tran analysis `PulsoRead-000_PulsoRead': CPU = 101.064 ms, elapsed = 127.101 ms.
Time accumulated: CPU = 1.56568 s, elapsed = 2.03824 s.
Peak resident memory used = 65.9 Mbytes.


Notice from spectre during task `MDLControl'.
    48 notices suppressed.
Warning from spectre.
    WARNING (CMI-2178): Vgnd: Terminals must not be connected together (to node `0').


++++++++++++++++++++
Tpread = (2.099999n)
++++++++++++++++++++

Warning from spectre.
    WARNING (CMI-2178): Vgnd: Terminals must not be connected together (to node `0').


******************************************************************
Transient Analysis `PulsoRead-001_PulsoRead': time = (0 s -> 3 ns)
******************************************************************

Notice from spectre during IC analysis, during transient analysis `PulsoRead-001_PulsoRead', during task `MDLControl'.
    GminDC = 1 pS is large enough to noticeably affect the DC solution.
        dV(BL) = 110.373 mV
        Use the `gmin_check' option to eliminate or expand this report.

DC simulation time: CPU = 1.477 ms, elapsed = 1.51181 ms.

Notice from spectre during transient analysis `PulsoRead-001_PulsoRead', during task `MDLControl'.
    No outputs were found. Loosening output filter criterion to `allpub'.


Opening the PSF file Cell.raw/PulsoRead-001_PulsoRead.tran.tran ...
Important parameter values:
    start = 0 s
    outputstart = 0 s
    stop = 3 ns
    step = 3 ps
    maxstep = 60 ps
    ic = all
    useprevic = no
    skipdc = no
    reltol = 1e-03
    abstol(V) = 1 uV
    abstol(I) = 1 pA
    temp = 27 C
    tnom = 27 C
    tempeffects = all
    errpreset = moderate
    method = traponly
    lteratio = 3.5
    relref = sigglobal
    cmin = 0 F
    gmin = 1 pS


Output and IC/nodeset summary:
                 save   16      (current)
                 save   24      (voltage)

...............9...............8.............

Notice from spectre at time = 912.757 ps during transient analysis `PulsoRead-001_PulsoRead', during task `MDLControl'.
    Found trapezoidal ringing on node X2.M_i_0:int_b.

...............9...............8...............7.

Notice from spectre at time = 972.757 ps during transient analysis `PulsoRead-001_PulsoRead', during task `MDLControl'.
    Found trapezoidal ringing on node X2.M_i_0:int_b.

...............9...............8...............7....

Notice from spectre at time = 999.999 ps during transient analysis `PulsoRead-001_PulsoRead', during task `MDLControl'.
    Found trapezoidal ringing on node X2.M_i_0:int_b.

...............9...............8...............7............

Notice from spectre at time = 1.18786 ns during transient analysis `PulsoRead-001_PulsoRead', during task `MDLControl'.
    Found trapezoidal ringing on node Vdd:p.

...............9...............8...............7...............

Notice from spectre at time = 1.2 ns during transient analysis `PulsoRead-001_PulsoRead', during task `MDLControl'.
    Found trapezoidal ringing on node Vdd:p.
        Further occurrences of this notice will be suppressed.

...............9...............8...............7...............6...............5...............4...............3...............2...............1...............0
Number of accepted tran steps =             367

Notice from spectre during transient analysis `PulsoRead-001_PulsoRead', during task `MDLControl'.
    Trapezoidal ringing is detected during tran analysis.
        Please use method=trap for better results and performance.


Maximum value achieved for any signal of each quantity: 
V: V(X3.2) = 1.338 V
I: I(Vpre:p) = 936.7 mA
If your circuit contains signals of the same quantity that are vastly different in size (such as high voltage circuitry combined with low voltage control circuitry), you should consider specifying global option `bin_relref=yes'.

~~~~~~~~~~~~~~~~~~~~~~~~~~~~~~~~~
Post-Transient Simulation Summary
~~~~~~~~~~~~~~~~~~~~~~~~~~~~~~~~~
   -   To further speed up simulation, consider
          add ++aps on command line
~~~~~~~~~~~~~~~~~~~~~~~~~~~~~~~~~


During simulation, the CPU load for active processors is :
        Spectre  0 (20.4 %)      1 (16.8 %)      2 (61.9 %)      3 (11.6 %)
        Other   
Initial condition solution time: CPU = 1.529 ms, elapsed = 1.57309 ms.
Intrinsic tran analysis time:    CPU = 99.583 ms, elapsed = 129.01 ms.
Total time required for tran analysis `PulsoRead-001_PulsoRead': CPU = 103.706 ms, elapsed = 133.455 ms.
Time accumulated: CPU = 1.67845 s, elapsed = 2.30601 s.
Peak resident memory used = 66 Mbytes.


Notice from spectre during task `MDLControl'.
    53 notices suppressed.


Value of Exported Variables in this iteration of the Search loop ( iteration = 1 ) :
Ten_dif=1.10204
Voltage=0.79
Dif_tempo_min=1e-15
Power1=1.83125e-16
Power2=6.07202e-16
Power3=0
Power4=0
Power5=0
Power6=1.22755e-17
Power7=0
Power8=1.54715e-17
Power9=0
Power10=0
Power11=2.1526e-16
Power=1.03333e-15

+++++++++++++++
Tpread = (1.8n)
+++++++++++++++

Warning from spectre.
    WARNING (CMI-2178): Vgnd: Terminals must not be connected together (to node `0').


******************************************************************
Transient Analysis `PulsoRead-001_PulsoRead': time = (0 s -> 3 ns)
******************************************************************

Notice from spectre during IC analysis, during transient analysis `PulsoRead-001_PulsoRead', during task `MDLControl'.
    GminDC = 1 pS is large enough to noticeably affect the DC solution.
        dV(BL) = 110.373 mV
        Use the `gmin_check' option to eliminate or expand this report.

DC simulation time: CPU = 1.007 ms, elapsed = 1.02186 ms.

Notice from spectre during transient analysis `PulsoRead-001_PulsoRead', during task `MDLControl'.
    No outputs were found. Loosening output filter criterion to `allpub'.


Opening the PSF file Cell.raw/PulsoRead-001_PulsoRead.tran.tran ...
Important parameter values:
    start = 0 s
    outputstart = 0 s
    stop = 3 ns
    step = 3 ps
    maxstep = 60 ps
    ic = all
    useprevic = no
    skipdc = no
    reltol = 1e-03
    abstol(V) = 1 uV
    abstol(I) = 1 pA
    temp = 27 C
    tnom = 27 C
    tempeffects = all
    errpreset = moderate
    method = traponly
    lteratio = 3.5
    relref = sigglobal
    cmin = 0 F
    gmin = 1 pS


Output and IC/nodeset summary:
                 save   16      (current)
                 save   24      (voltage)

...............9...............8.............

Notice from spectre at time = 912.757 ps during transient analysis `PulsoRead-001_PulsoRead', during task `MDLControl'.
    Found trapezoidal ringing on node X2.M_i_0:int_b.

...............9...............8...............7.

Notice from spectre at time = 972.757 ps during transient analysis `PulsoRead-001_PulsoRead', during task `MDLControl'.
    Found trapezoidal ringing on node X2.M_i_0:int_b.

...............9...............8...............7....

Notice from spectre at time = 999.999 ps during transient analysis `PulsoRead-001_PulsoRead', during task `MDLControl'.
    Found trapezoidal ringing on node X2.M_i_0:int_b.

...............9...............8...............7............

Notice from spectre at time = 1.18786 ns during transient analysis `PulsoRead-001_PulsoRead', during task `MDLControl'.
    Found trapezoidal ringing on node Vdd:p.

...............9...............8...............7...............

Notice from spectre at time = 1.2 ns during transient analysis `PulsoRead-001_PulsoRead', during task `MDLControl'.
    Found trapezoidal ringing on node Vdd:p.
        Further occurrences of this notice will be suppressed.

...............9...............8...............7...............6...............5...............4...............3...............2...............1...............0
Number of accepted tran steps =             410

Notice from spectre during transient analysis `PulsoRead-001_PulsoRead', during task `MDLControl'.
    Trapezoidal ringing is detected during tran analysis.
        Please use method=trap for better results and performance.


Maximum value achieved for any signal of each quantity: 
V: V(M_i_4:sbnode) = 1.362 V
I: I(Vpre:p) = 956.5 mA
If your circuit contains signals of the same quantity that are vastly different in size (such as high voltage circuitry combined with low voltage control circuitry), you should consider specifying global option `bin_relref=yes'.

~~~~~~~~~~~~~~~~~~~~~~~~~~~~~~~~~
Post-Transient Simulation Summary
~~~~~~~~~~~~~~~~~~~~~~~~~~~~~~~~~
   -   To further speed up simulation, consider
          add ++aps on command line
~~~~~~~~~~~~~~~~~~~~~~~~~~~~~~~~~


During simulation, the CPU load for active processors is :
        Spectre  0 (23.9 %)      1 (16.3 %)      2 (59.2 %)      3 (11.8 %)
        Other   
Initial condition solution time: CPU = 1.051 ms, elapsed = 1.07813 ms.
Intrinsic tran analysis time:    CPU = 100.268 ms, elapsed = 125.16 ms.
Total time required for tran analysis `PulsoRead-001_PulsoRead': CPU = 103.124 ms, elapsed = 128.16 ms.
Time accumulated: CPU = 1.78748 s, elapsed = 2.44019 s.
Peak resident memory used = 66.1 Mbytes.


Notice from spectre during task `MDLControl'.
    54 notices suppressed.


Value of Exported Variables in this iteration of the Search loop ( iteration = 2 ) :
Ten_dif=6.07239e-06
Voltage=0.79
Dif_tempo_min=3e-10
Power1=2.15324e-15
Power2=1.23721e-15
Power3=0
Power4=0
Power5=0
Power6=2.01298e-16
Power7=0
Power8=1.23646e-17
Power9=0
Power10=0
Power11=7.63149e-16
Power=4.36726e-15

+++++++++++++++++
Tpread = 1.95e-09
+++++++++++++++++

Warning from spectre.
    WARNING (CMI-2178): Vgnd: Terminals must not be connected together (to node `0').


******************************************************************
Transient Analysis `PulsoRead-001_PulsoRead': time = (0 s -> 3 ns)
******************************************************************

Notice from spectre during IC analysis, during transient analysis `PulsoRead-001_PulsoRead', during task `MDLControl'.
    GminDC = 1 pS is large enough to noticeably affect the DC solution.
        dV(BL) = 110.373 mV
        Use the `gmin_check' option to eliminate or expand this report.

DC simulation time: CPU = 980 us, elapsed = 996.113 us.

Notice from spectre during transient analysis `PulsoRead-001_PulsoRead', during task `MDLControl'.
    No outputs were found. Loosening output filter criterion to `allpub'.


Opening the PSF file Cell.raw/PulsoRead-001_PulsoRead.tran.tran ...
Important parameter values:
    start = 0 s
    outputstart = 0 s
    stop = 3 ns
    step = 3 ps
    maxstep = 60 ps
    ic = all
    useprevic = no
    skipdc = no
    reltol = 1e-03
    abstol(V) = 1 uV
    abstol(I) = 1 pA
    temp = 27 C
    tnom = 27 C
    tempeffects = all
    errpreset = moderate
    method = traponly
    lteratio = 3.5
    relref = sigglobal
    cmin = 0 F
    gmin = 1 pS


Output and IC/nodeset summary:
                 save   16      (current)
                 save   24      (voltage)

...............9...............8.............

Notice from spectre at time = 912.757 ps during transient analysis `PulsoRead-001_PulsoRead', during task `MDLControl'.
    Found trapezoidal ringing on node X2.M_i_0:int_b.

...............9...............8...............7.

Notice from spectre at time = 972.757 ps during transient analysis `PulsoRead-001_PulsoRead', during task `MDLControl'.
    Found trapezoidal ringing on node X2.M_i_0:int_b.

...............9...............8...............7....

Notice from spectre at time = 999.999 ps during transient analysis `PulsoRead-001_PulsoRead', during task `MDLControl'.
    Found trapezoidal ringing on node X2.M_i_0:int_b.

...............9...............8...............7............

Notice from spectre at time = 1.18786 ns during transient analysis `PulsoRead-001_PulsoRead', during task `MDLControl'.
    Found trapezoidal ringing on node Vdd:p.

...............9...............8...............7...............

Notice from spectre at time = 1.2 ns during transient analysis `PulsoRead-001_PulsoRead', during task `MDLControl'.
    Found trapezoidal ringing on node Vdd:p.
        Further occurrences of this notice will be suppressed.

...............9...............8...............7...............6...............5...............4...............3...............2...............1...............0
Number of accepted tran steps =             409

Notice from spectre during transient analysis `PulsoRead-001_PulsoRead', during task `MDLControl'.
    Trapezoidal ringing is detected during tran analysis.
        Please use method=trap for better results and performance.


Maximum value achieved for any signal of each quantity: 
V: V(M_i_4:sbnode) = 1.362 V
I: I(Vpre:p) = 956.5 mA
If your circuit contains signals of the same quantity that are vastly different in size (such as high voltage circuitry combined with low voltage control circuitry), you should consider specifying global option `bin_relref=yes'.

~~~~~~~~~~~~~~~~~~~~~~~~~~~~~~~~~
Post-Transient Simulation Summary
~~~~~~~~~~~~~~~~~~~~~~~~~~~~~~~~~
   -   To further speed up simulation, consider
          add ++aps on command line
~~~~~~~~~~~~~~~~~~~~~~~~~~~~~~~~~


During simulation, the CPU load for active processors is :
        Spectre  0 (27.4 %)      1 (16.6 %)      2 (56.7 %)      3 (11.9 %)
        Other   
Initial condition solution time: CPU = 1.015 ms, elapsed = 1.03807 ms.
Intrinsic tran analysis time:    CPU = 101.264 ms, elapsed = 125.342 ms.
Total time required for tran analysis `PulsoRead-001_PulsoRead': CPU = 103.968 ms, elapsed = 128.174 ms.
Time accumulated: CPU = 1.89761 s, elapsed = 2.57464 s.
Peak resident memory used = 66.1 Mbytes.


Notice from spectre during task `MDLControl'.
    59 notices suppressed.


Value of Exported Variables in this iteration of the Search loop ( iteration = 3 ) :
Ten_dif=5.40408e-06
Voltage=0.79
Dif_tempo_min=1.50001e-10
Power1=2.38887e-15
Power2=1.77894e-15
Power3=0
Power4=0
Power5=0
Power6=1.98538e-16
Power7=0
Power8=1.27256e-17
Power9=0
Power10=0
Power11=9.51004e-16
Power=5.33008e-15

++++++++++++++++++
Tpread = 2.025e-09
++++++++++++++++++

Warning from spectre.
    WARNING (CMI-2178): Vgnd: Terminals must not be connected together (to node `0').


******************************************************************
Transient Analysis `PulsoRead-001_PulsoRead': time = (0 s -> 3 ns)
******************************************************************

Notice from spectre during IC analysis, during transient analysis `PulsoRead-001_PulsoRead', during task `MDLControl'.
    GminDC = 1 pS is large enough to noticeably affect the DC solution.
        dV(BL) = 110.373 mV
        Use the `gmin_check' option to eliminate or expand this report.

DC simulation time: CPU = 1.006 ms, elapsed = 1.02592 ms.

Notice from spectre during transient analysis `PulsoRead-001_PulsoRead', during task `MDLControl'.
    No outputs were found. Loosening output filter criterion to `allpub'.


Opening the PSF file Cell.raw/PulsoRead-001_PulsoRead.tran.tran ...
Important parameter values:
    start = 0 s
    outputstart = 0 s
    stop = 3 ns
    step = 3 ps
    maxstep = 60 ps
    ic = all
    useprevic = no
    skipdc = no
    reltol = 1e-03
    abstol(V) = 1 uV
    abstol(I) = 1 pA
    temp = 27 C
    tnom = 27 C
    tempeffects = all
    errpreset = moderate
    method = traponly
    lteratio = 3.5
    relref = sigglobal
    cmin = 0 F
    gmin = 1 pS


Output and IC/nodeset summary:
                 save   16      (current)
                 save   24      (voltage)

...............9...............8.............

Notice from spectre at time = 912.757 ps during transient analysis `PulsoRead-001_PulsoRead', during task `MDLControl'.
    Found trapezoidal ringing on node X2.M_i_0:int_b.

...............9...............8...............7.

Notice from spectre at time = 972.757 ps during transient analysis `PulsoRead-001_PulsoRead', during task `MDLControl'.
    Found trapezoidal ringing on node X2.M_i_0:int_b.

...............9...............8...............7....

Notice from spectre at time = 999.999 ps during transient analysis `PulsoRead-001_PulsoRead', during task `MDLControl'.
    Found trapezoidal ringing on node X2.M_i_0:int_b.

...............9...............8...............7............

Notice from spectre at time = 1.18786 ns during transient analysis `PulsoRead-001_PulsoRead', during task `MDLControl'.
    Found trapezoidal ringing on node Vdd:p.

...............9...............8...............7...............

Notice from spectre at time = 1.2 ns during transient analysis `PulsoRead-001_PulsoRead', during task `MDLControl'.
    Found trapezoidal ringing on node Vdd:p.
        Further occurrences of this notice will be suppressed.

...............9...............8...............7...............6...............5...............4...............3...............2...............1...............0
Number of accepted tran steps =             407

Notice from spectre during transient analysis `PulsoRead-001_PulsoRead', during task `MDLControl'.
    Trapezoidal ringing is detected during tran analysis.
        Please use method=trap for better results and performance.


Maximum value achieved for any signal of each quantity: 
V: V(M_i_4:sbnode) = 1.361 V
I: I(Vpre:p) = 955.8 mA
If your circuit contains signals of the same quantity that are vastly different in size (such as high voltage circuitry combined with low voltage control circuitry), you should consider specifying global option `bin_relref=yes'.

~~~~~~~~~~~~~~~~~~~~~~~~~~~~~~~~~
Post-Transient Simulation Summary
~~~~~~~~~~~~~~~~~~~~~~~~~~~~~~~~~
   -   To further speed up simulation, consider
          add ++aps on command line
~~~~~~~~~~~~~~~~~~~~~~~~~~~~~~~~~


During simulation, the CPU load for active processors is :
        Spectre  0 (26.9 %)      1 (19.5 %)      2 (54.1 %)      3 (11.7 %)
        Other   
Initial condition solution time: CPU = 1.051 ms, elapsed = 1.07789 ms.
Intrinsic tran analysis time:    CPU = 99.653 ms, elapsed = 130.923 ms.
Total time required for tran analysis `PulsoRead-001_PulsoRead': CPU = 102.429 ms, elapsed = 133.843 ms.
Time accumulated: CPU = 2.00611 s, elapsed = 2.71468 s.
Peak resident memory used = 66.1 Mbytes.


Notice from spectre during task `MDLControl'.
    56 notices suppressed.


Value of Exported Variables in this iteration of the Search loop ( iteration = 4 ) :
Ten_dif=0.000631347
Voltage=0.79
Dif_tempo_min=7.50008e-11
Power1=2.3091e-15
Power2=1.74512e-15
Power3=0
Power4=0
Power5=0
Power6=1.91477e-16
Power7=0
Power8=1.27739e-17
Power9=0
Power10=0
Power11=9.08946e-16
Power=5.16741e-15

+++++++++++++++++++
Tpread = 2.0625e-09
+++++++++++++++++++

Warning from spectre.
    WARNING (CMI-2178): Vgnd: Terminals must not be connected together (to node `0').


******************************************************************
Transient Analysis `PulsoRead-001_PulsoRead': time = (0 s -> 3 ns)
******************************************************************

Notice from spectre during IC analysis, during transient analysis `PulsoRead-001_PulsoRead', during task `MDLControl'.
    GminDC = 1 pS is large enough to noticeably affect the DC solution.
        dV(BL) = 110.373 mV
        Use the `gmin_check' option to eliminate or expand this report.

DC simulation time: CPU = 975 us, elapsed = 989.914 us.

Notice from spectre during transient analysis `PulsoRead-001_PulsoRead', during task `MDLControl'.
    No outputs were found. Loosening output filter criterion to `allpub'.


Opening the PSF file Cell.raw/PulsoRead-001_PulsoRead.tran.tran ...
Important parameter values:
    start = 0 s
    outputstart = 0 s
    stop = 3 ns
    step = 3 ps
    maxstep = 60 ps
    ic = all
    useprevic = no
    skipdc = no
    reltol = 1e-03
    abstol(V) = 1 uV
    abstol(I) = 1 pA
    temp = 27 C
    tnom = 27 C
    tempeffects = all
    errpreset = moderate
    method = traponly
    lteratio = 3.5
    relref = sigglobal
    cmin = 0 F
    gmin = 1 pS


Output and IC/nodeset summary:
                 save   16      (current)
                 save   24      (voltage)

...............9...............8.............

Notice from spectre at time = 912.757 ps during transient analysis `PulsoRead-001_PulsoRead', during task `MDLControl'.
    Found trapezoidal ringing on node X2.M_i_0:int_b.

...............9...............8...............7.

Notice from spectre at time = 972.757 ps during transient analysis `PulsoRead-001_PulsoRead', during task `MDLControl'.
    Found trapezoidal ringing on node X2.M_i_0:int_b.

...............9...............8...............7....

Notice from spectre at time = 999.999 ps during transient analysis `PulsoRead-001_PulsoRead', during task `MDLControl'.
    Found trapezoidal ringing on node X2.M_i_0:int_b.

...............9...............8...............7............

Notice from spectre at time = 1.18786 ns during transient analysis `PulsoRead-001_PulsoRead', during task `MDLControl'.
    Found trapezoidal ringing on node Vdd:p.

...............9...............8...............7...............

Notice from spectre at time = 1.2 ns during transient analysis `PulsoRead-001_PulsoRead', during task `MDLControl'.
    Found trapezoidal ringing on node Vdd:p.
        Further occurrences of this notice will be suppressed.

[...]
    Trapezoidal ringing is detected during tran analysis.
        Please use method=trap for better results and performance.


Maximum value achieved for any signal of each quantity: 
V: V(M_i_4:sbnode) = 1.359 V
I: I(Vpre:p) = 955.8 mA
If your circuit contains signals of the same quantity that are vastly different in size (such as high voltage circuitry combined with low voltage control circuitry), you should consider specifying global option `bin_relref=yes'.

~~~~~~~~~~~~~~~~~~~~~~~~~~~~~~~~~
Post-Transient Simulation Summary
~~~~~~~~~~~~~~~~~~~~~~~~~~~~~~~~~
   -   To further speed up simulation, consider
          add ++aps on command line
~~~~~~~~~~~~~~~~~~~~~~~~~~~~~~~~~


During simulation, the CPU load for active processors is :
        Spectre  0 (27.0 %)      1 (21.6 %)      2 (54.5 %)      3 (11.9 %)
        Other   
Initial condition solution time: CPU = 1.028 ms, elapsed = 1.04904 ms.
Intrinsic tran analysis time:    CPU = 99.923 ms, elapsed = 124.024 ms.
Total time required for tran analysis `PulsoRead-001_PulsoRead': CPU = 102.654 ms, elapsed = 126.883 ms.
Time accumulated: CPU = 2.4428 s, elapsed = 3.24831 s.
Peak resident memory used = 66.3 Mbytes.


Notice from spectre during task `MDLControl'.
    59 notices suppressed.


Value of Exported Variables in this iteration of the Search loop ( iteration = 8 ) :
Ten_dif=0.0579273
Voltage=0.79
Dif_tempo_min=5.15633e-11
Power1=1.99865e-15
Power2=1.62883e-15
Power3=0
Power4=0
Power5=0
Power6=1.63173e-16
Power7=0
Power8=1.30509e-17
Power9=0
Power10=0
Power11=7.3701e-16
Power=4.54072e-15

++++++++++++++++++++
Tpread = 2.05078e-09
++++++++++++++++++++

Warning from spectre.
    WARNING (CMI-2178): Vgnd: Terminals must not be connected together (to node `0').


******************************************************************
Transient Analysis `PulsoRead-001_PulsoRead': time = (0 s -> 3 ns)
******************************************************************

Notice from spectre during IC analysis, during transient analysis `PulsoRead-001_PulsoRead', during task `MDLControl'.
    GminDC = 1 pS is large enough to noticeably affect the DC solution.
        dV(BL) = 110.373 mV
        Use the `gmin_check' option to eliminate or expand this report.

DC simulation time: CPU = 997 us, elapsed = 1.01614 ms.

Notice from spectre during transient analysis `PulsoRead-001_PulsoRead', during task `MDLControl'.
    No outputs were found. Loosening output filter criterion to `allpub'.


Opening the PSF file Cell.raw/PulsoRead-001_PulsoRead.tran.tran ...
Important parameter values:
    start = 0 s
    outputstart = 0 s
    stop = 3 ns
    step = 3 ps
    maxstep = 60 ps
    ic = all
    useprevic = no
    skipdc = no
    reltol = 1e-03
    abstol(V) = 1 uV
    abstol(I) = 1 pA
    temp = 27 C
    tnom = 27 C
    tempeffects = all
    errpreset = moderate
    method = traponly
    lteratio = 3.5
    relref = sigglobal
    cmin = 0 F
    gmin = 1 pS


Output and IC/nodeset summary:
                 save   16      (current)
                 save   24      (voltage)

...............9...............8.............

Notice from spectre at time = 912.757 ps during transient analysis `PulsoRead-001_PulsoRead', during task `MDLControl'.
    Found trapezoidal ringing on node X2.M_i_0:int_b.

...............9...............8...............7.

Notice from spectre at time = 972.757 ps during transient analysis `PulsoRead-001_PulsoRead', during task `MDLControl'.
    Found trapezoidal ringing on node X2.M_i_0:int_b.

...............9...............8...............7....

Notice from spectre at time = 999.999 ps during transient analysis `PulsoRead-001_PulsoRead', during task `MDLControl'.
    Found trapezoidal ringing on node X2.M_i_0:int_b.

...............9...............8...............7............

Notice from spectre at time = 1.18786 ns during transient analysis `PulsoRead-001_PulsoRead', during task `MDLControl'.
    Found trapezoidal ringing on node Vdd:p.

...............9...............8...............7...............

Notice from spectre at time = 1.2 ns during transient analysis `PulsoRead-001_PulsoRead', during task `MDLControl'.
    Found trapezoidal ringing on node Vdd:p.
        Further occurrences of this notice will be suppressed.

...............9...............8...............7...............6...............5...............4...............3...............2...............1...............0
Number of accepted tran steps =             403

Notice from spectre during transient analysis `PulsoRead-001_PulsoRead', during task `MDLControl'.
    Trapezoidal ringing is detected during tran analysis.
        Please use method=trap for better results and performance.


Maximum value achieved for any signal of each quantity: 
V: V(M_i_4:sbnode) = 1.36 V
I: I(Vpre:p) = 955.8 mA
If your circuit contains signals of the same quantity that are vastly different in size (such as high voltage circuitry combined with low voltage control circuitry), you should consider specifying global option `bin_relref=yes'.

~~~~~~~~~~~~~~~~~~~~~~~~~~~~~~~~~
Post-Transient Simulation Summary
~~~~~~~~~~~~~~~~~~~~~~~~~~~~~~~~~
   -   To further speed up simulation, consider
          add ++aps on command line
~~~~~~~~~~~~~~~~~~~~~~~~~~~~~~~~~


During simulation, the CPU load for active processors is :
        Spectre  0 (26.7 %)      1 (21.1 %)      2 (56.0 %)      3 (11.7 %)
        Other   
Initial condition solution time: CPU = 1.032 ms, elapsed = 1.06001 ms.
Intrinsic tran analysis time:    CPU = 121.456 ms, elapsed = 145.88 ms.
Total time required for tran analysis `PulsoRead-001_PulsoRead': CPU = 124.293 ms, elapsed = 148.865 ms.
Time accumulated: CPU = 2.57313 s, elapsed = 3.40334 s.
Peak resident memory used = 66.3 Mbytes.


Notice from spectre during task `MDLControl'.
    53 notices suppressed.


Value of Exported Variables in this iteration of the Search loop ( iteration = 9 ) :
Ten_dif=0.077263
Voltage=0.79
Dif_tempo_min=4.92196e-11
Power1=1.94487e-15
Power2=1.61138e-15
Power3=0
Power4=0
Power5=0
Power6=1.58141e-16
Power7=0
Power8=1.308e-17
Power9=0
Power10=0
Power11=7.05875e-16
Power=4.43334e-15

++++++++++++++++++++
Tpread = 2.05195e-09
++++++++++++++++++++

Warning from spectre.
    WARNING (CMI-2178): Vgnd: Terminals must not be connected together (to node `0').


******************************************************************
Transient Analysis `PulsoRead-001_PulsoRead': time = (0 s -> 3 ns)
******************************************************************

Notice from spectre during IC analysis, during transient analysis `PulsoRead-001_PulsoRead', during task `MDLControl'.
    GminDC = 1 pS is large enough to noticeably affect the DC solution.
        dV(BL) = 110.373 mV
        Use the `gmin_check' option to eliminate or expand this report.

DC simulation time: CPU = 1.05 ms, elapsed = 1.07217 ms.

Notice from spectre during transient analysis `PulsoRead-001_PulsoRead', during task `MDLControl'.
    No outputs were found. Loosening output filter criterion to `allpub'.


Opening the PSF file Cell.raw/PulsoRead-001_PulsoRead.tran.tran ...
Important parameter values:
    start = 0 s
    outputstart = 0 s
    stop = 3 ns
    step = 3 ps
    maxstep = 60 ps
    ic = all
    useprevic = no
    skipdc = no
    reltol = 1e-03
    abstol(V) = 1 uV
    abstol(I) = 1 pA
    temp = 27 C
    tnom = 27 C
    tempeffects = all
    errpreset = moderate
    method = traponly
    lteratio = 3.5
    relref = sigglobal
    cmin = 0 F
    gmin = 1 pS


Output and IC/nodeset summary:
                 save   16      (current)
                 save   24      (voltage)

...............9...............8.............

Notice from spectre at time = 912.757 ps during transient analysis `PulsoRead-001_PulsoRead', during task `MDLControl'.
    Found trapezoidal ringing on node X2.M_i_0:int_b.

...............9...............8...............7.

Notice from spectre at time = 972.757 ps during transient analysis `PulsoRead-001_PulsoRead', during task `MDLControl'.
    Found trapezoidal ringing on node X2.M_i_0:int_b.

...............9...............8...............7....

Notice from spectre at time = 999.999 ps during transient analysis `PulsoRead-001_PulsoRead', during task `MDLControl'.
    Found trapezoidal ringing on node X2.M_i_0:int_b.

...............9...............8...............7............

Notice from spectre at time = 1.18786 ns during transient analysis `PulsoRead-001_PulsoRead', during task `MDLControl'.
    Found trapezoidal ringing on node Vdd:p.

...............9...............8...............7...............

Notice from spectre at time = 1.2 ns during transient analysis `PulsoRead-001_PulsoRead', during task `MDLControl'.
    Found trapezoidal ringing on node Vdd:p.
        Further occurrences of this notice will be suppressed.

...............9...............8...............7...............6...............5...............4...............3...............2...............1...............0
Number of accepted tran steps =             403

Notice from spectre during transient analysis `PulsoRead-001_PulsoRead', during task `MDLControl'.
    Trapezoidal ringing is detected during tran analysis.
        Please use method=trap for better results and performance.


Maximum value achieved for any signal of each quantity: 
V: V(M_i_4:sbnode) = 1.36 V
I: I(Vpre:p) = 955.6 mA
If your circuit contains signals of the same quantity that are vastly different in size (such as high voltage circuitry combined with low voltage control circuitry), you should consider specifying global option `bin_relref=yes'.

~~~~~~~~~~~~~~~~~~~~~~~~~~~~~~~~~
Post-Transient Simulation Summary
~~~~~~~~~~~~~~~~~~~~~~~~~~~~~~~~~
   -   To further speed up simulation, consider
          add ++aps on command line
~~~~~~~~~~~~~~~~~~~~~~~~~~~~~~~~~


During simulation, the CPU load for active processors is :
        Spectre  0 (26.4 %)      1 (20.7 %)      2 (57.0 %)      3 (11.7 %)
        Other   
Initial condition solution time: CPU = 1.085 ms, elapsed = 1.11413 ms.
Intrinsic tran analysis time:    CPU = 120.009 ms, elapsed = 156.214 ms.
Total time required for tran analysis `PulsoRead-001_PulsoRead': CPU = 122.766 ms, elapsed = 159.11 ms.
Time accumulated: CPU = 2.70171 s, elapsed = 3.56841 s.
Peak resident memory used = 66.3 Mbytes.


Notice from spectre during task `MDLControl'.
    53 notices suppressed.


Value of Exported Variables in this iteration of the Search loop ( iteration = 10 ) :
Ten_dif=0.088476
Voltage=0.79
Dif_tempo_min=4.80477e-11
Power1=1.91596e-15
Power2=1.60219e-15
Power3=0
Power4=0
Power5=0
Power6=1.55449e-16
Power7=0
Power8=1.30939e-17
Power9=0
Power10=0
Power11=6.89014e-16
Power=4.3757e-15

++++++++++++++++++++
Tpread = 2.05254e-09
++++++++++++++++++++

Warning from spectre.
    WARNING (CMI-2178): Vgnd: Terminals must not be connected together (to node `0').


******************************************************************
Transient Analysis `PulsoRead-001_PulsoRead': time = (0 s -> 3 ns)
******************************************************************

Notice from spectre during IC analysis, during transient analysis `PulsoRead-001_PulsoRead', during task `MDLControl'.
    GminDC = 1 pS is large enough to noticeably affect the DC solution.
        dV(BL) = 110.373 mV
        Use the `gmin_check' option to eliminate or expand this report.

DC simulation time: CPU = 985 us, elapsed = 1.00684 ms.

Notice from spectre during transient analysis `PulsoRead-001_PulsoRead', during task `MDLControl'.
    No outputs were found. Loosening output filter criterion to `allpub'.


Opening the PSF file Cell.raw/PulsoRead-001_PulsoRead.tran.tran ...
Important parameter values:
    start = 0 s
    outputstart = 0 s
    stop = 3 ns
    step = 3 ps
    maxstep = 60 ps
    ic = all
    useprevic = no
    skipdc = no
    reltol = 1e-03
    abstol(V) = 1 uV
    abstol(I) = 1 pA
    temp = 27 C
    tnom = 27 C
    tempeffects = all
    errpreset = moderate
    method = traponly
    lteratio = 3.5
    relref = sigglobal
    cmin = 0 F
    gmin = 1 pS


Output and IC/nodeset summary:
                 save   16      (current)
                 save   24      (voltage)

...............9...............8.............

Notice from spectre at time = 912.757 ps during transient analysis `PulsoRead-001_PulsoRead', during task `MDLControl'.
    Found trapezoidal ringing on node X2.M_i_0:int_b.

...............9...............8...............7.

Notice from spectre at time = 972.757 ps during transient analysis `PulsoRead-001_PulsoRead', during task `MDLControl'.
    Found trapezoidal ringing on node X2.M_i_0:int_b.

...............9...............8...............7....

Notice from spectre at time = 999.999 ps during transient analysis `PulsoRead-001_PulsoRead', during task `MDLControl'.
    Found trapezoidal ringing on node X2.M_i_0:int_b.

...............9...............8...............7............

Notice from spectre at time = 1.18786 ns during transient analysis `PulsoRead-001_PulsoRead', during task `MDLControl'.
    Found trapezoidal ringing on node Vdd:p.

...............9...............8...............7...............

Notice from spectre at time = 1.2 ns during transient analysis `PulsoRead-001_PulsoRead', during task `MDLControl'.
    Found trapezoidal ringing on node Vdd:p.
        Further occurrences of this notice will be suppressed.

...............9...............8...............7...............6...............5...............4...............3...............2...............1...............0
Number of accepted tran steps =             403

Notice from spectre during transient analysis `PulsoRead-001_PulsoRead', during task `MDLControl'.
    Trapezoidal ringing is detected during tran analysis.
        Please use method=trap for better results and performance.


Maximum value achieved for any signal of each quantity: 
V: V(M_i_4:sbnode) = 1.361 V
I: I(Vpre:p) = 955.5 mA
If your circuit contains signals of the same quantity that are vastly different in size (such as high voltage circuitry combined with low voltage control circuitry), you should consider specifying global option `bin_relref=yes'.

~~~~~~~~~~~~~~~~~~~~~~~~~~~~~~~~~
Post-Transient Simulation Summary
~~~~~~~~~~~~~~~~~~~~~~~~~~~~~~~~~
   -   To further speed up simulation, consider
          add ++aps on command line
~~~~~~~~~~~~~~~~~~~~~~~~~~~~~~~~~


During simulation, the CPU load for active processors is :
        Spectre  0 (26.1 %)      1 (20.3 %)      2 (57.8 %)      3 (11.3 %)
        Other   
Initial condition solution time: CPU = 1.02 ms, elapsed = 1.05 ms.
Intrinsic tran analysis time:    CPU = 101.668 ms, elapsed = 130.698 ms.
Total time required for tran analysis `PulsoRead-001_PulsoRead': CPU = 104.423 ms, elapsed = 133.588 ms.
Time accumulated: CPU = 2.81229 s, elapsed = 3.70827 s.
Peak resident memory used = 66.4 Mbytes.


Notice from spectre during task `MDLControl'.
    53 notices suppressed.


Value of Exported Variables in this iteration of the Search loop ( iteration = 11 ) :
Ten_dif=0.0944861
Voltage=0.79
Dif_tempo_min=4.74618e-11
Power1=1.90101e-15
Power2=1.5975e-15
Power3=0
Power4=0
Power5=0
Power6=1.54056e-16
Power7=0
Power8=1.3101e-17
Power9=0
Power10=0
Power11=6.80273e-16
Power=4.34595e-15

++++++++++++++++++++++++++++++++++++++++++++
Optimization completed. Tpread = 2.05254e-09
++++++++++++++++++++++++++++++++++++++++++++

******************************************************************
Transient Analysis `PulsoRead-001_PulsoRead': time = (0 s -> 3 ns)
******************************************************************

Notice from spectre during IC analysis, during transient analysis `PulsoRead-001_PulsoRead', during task `MDLControl'.
    GminDC = 1 pS is large enough to noticeably affect the DC solution.
        dV(BL) = 110.373 mV
        Use the `gmin_check' option to eliminate or expand this report.

DC simulation time: CPU = 1 ms, elapsed = 1.0221 ms.

Notice from spectre during transient analysis `PulsoRead-001_PulsoRead', during task `MDLControl'.
    No outputs were found. Loosening output filter criterion to `allpub'.


Opening the PSF file Cell.raw/PulsoRead-001_PulsoRead.tran.tran ...
Important parameter values:
    start = 0 s
    outputstart = 0 s
    stop = 3 ns
    step = 3 ps
    maxstep = 60 ps
    ic = all
    useprevic = no
    skipdc = no
    reltol = 1e-03
    abstol(V) = 1 uV
    abstol(I) = 1 pA
    temp = 27 C
    tnom = 27 C
    tempeffects = all
    errpreset = moderate
    method = traponly
    lteratio = 3.5
    relref = sigglobal
    cmin = 0 F
    gmin = 1 pS


Output and IC/nodeset summary:
                 save   16      (current)
                 save   24      (voltage)

...............9...............8.............

Notice from spectre at time = 912.757 ps during transient analysis `PulsoRead-001_PulsoRead', during task `MDLControl'.
    Found trapezoidal ringing on node X2.M_i_0:int_b.

...............9...............8...............7.

Notice from spectre at time = 972.757 ps during transient analysis `PulsoRead-001_PulsoRead', during task `MDLControl'.
    Found trapezoidal ringing on node X2.M_i_0:int_b.

...............9...............8...............7....

Notice from spectre at time = 999.999 ps during transient analysis `PulsoRead-001_PulsoRead', during task `MDLControl'.
    Found trapezoidal ringing on node X2.M_i_0:int_b.

...............9...............8...............7............

Notice from spectre at time = 1.18786 ns during transient analysis `PulsoRead-001_PulsoRead', during task `MDLControl'.
    Found trapezoidal ringing on node Vdd:p.

...............9...............8...............7...............

Notice from spectre at time = 1.2 ns during transient analysis `PulsoRead-001_PulsoRead', during task `MDLControl'.
    Found trapezoidal ringing on node Vdd:p.
        Further occurrences of this notice will be suppressed.

...............9...............8...............7...............6...............5...............4...............3...............2...............1...............0
Number of accepted tran steps =             403

Notice from spectre during transient analysis `PulsoRead-001_PulsoRead', during task `MDLControl'.
    Trapezoidal ringing is detected during tran analysis.
        Please use method=trap for better results and performance.


Maximum value achieved for any signal of each quantity: 
V: V(M_i_4:sbnode) = 1.361 V
I: I(Vpre:p) = 955.5 mA
If your circuit contains signals of the same quantity that are vastly different in size (such as high voltage circuitry combined with low voltage control circuitry), you should consider specifying global option `bin_relref=yes'.

~~~~~~~~~~~~~~~~~~~~~~~~~~~~~~~~~
Post-Transient Simulation Summary
~~~~~~~~~~~~~~~~~~~~~~~~~~~~~~~~~
   -   To further speed up simulation, consider
          add ++aps on command line
~~~~~~~~~~~~~~~~~~~~~~~~~~~~~~~~~


During simulation, the CPU load for active processors is :
        Spectre  0 (26.0 %)      1 (20.1 %)      2 (58.7 %)      3 (11.4 %)
        Other   
Initial condition solution time: CPU = 1.038 ms, elapsed = 1.06597 ms.
Intrinsic tran analysis time:    CPU = 99.149 ms, elapsed = 122.048 ms.
Total time required for tran analysis `PulsoRead-001_PulsoRead': CPU = 102.058 ms, elapsed = 125.106 ms.
Time accumulated: CPU = 2.91974 s, elapsed = 3.83889 s.
Peak resident memory used = 66.4 Mbytes.


Notice from spectre during task `MDLControl'.
    53 notices suppressed.
Warning from spectre.
    WARNING (CMI-2178): Vgnd: Terminals must not be connected together (to node `0').


Aggregate audit (4:40:08 PM, Mon Apr 20, 2020):
Time used: CPU = 2.92 s, elapsed = 3.91 s, util. = 74.8%.
Time spent in licensing: elapsed = 21.5 ms.
Peak memory used = 66.9 Mbytes.
Simulation started at: 4:40:04 PM, Mon Apr 20, 2020, ended at: 4:40:08 PM, Mon Apr 20, 2020, with elapsed time (wall clock): 3.91 s.
spectre completes with 0 errors, 31 warnings, and 218 notices.
